pglib_opf_case4020_goc/dapi/pglib_opf_case4020_goc_8regions_dapi.m
% -------------------------------------------------------------------------
% Partitioned MATPOWER Case File
% Copyright (c) 2025 Milad Hasanzadeh
% Generated on: 2026-06-14
% This file contains partitioned data for 8 regions


% -------------------- mpc_regionR1 --------------------

mpc_regionR1.version = '2';
mpc_regionR1.baseMVA = 100.0000;
mpc_regionR1.bus = [
%	bus_i       type        Pd          Qd          Gs          Bs          area        Vm          Va          baseKV      zone        Vmax        Vmin        
	 1	 2	 0	 0	 0	 0	 1	 1	 0	 500	 1	 1.1	 0.9;
	 2	 2	 0	 0	 0	 0	 1	 1	 0	 500	 1	 1.1	 0.9;
	 3	 2	 0	 0	 0	 0	 1	 1	 0	 69	 1	 1.1	 0.9;
	 4	 1	 8.93	 2.32	 0	 0	 1	 1	 0	 69	 1	 1.1	 0.9;
	 5	 1	 6.14	 1.76	 0	 0	 1	 1	 0	 69	 1	 1.1	 0.9;
	 6	 1	 7.11	 1.76	 0	 0	 1	 1	 0	 69	 1	 1.1	 0.9;
	 7	 1	 10.46	 2.78	 0	 0	 1	 1	 0	 69	 1	 1.1	 0.9;
	 8	 1	 11.02	 3.34	 0	 0	 1	 1	 0	 69	 1	 1.1	 0.9;
	 9	 1	 0	 0	 0	 0	 1	 1	 0	 138	 1	 1.1	 0.9;
	 10	 1	 12	 3.43	 0	 0	 1	 1	 0	 69	 1	 1.1	 0.9;
	 11	 1	 17.3	 1.76	 0	 0	 1	 1	 0	 69	 1	 1.1	 0.9;
	 12	 1	 5.16	 1.3	 0	 0	 1	 1	 0	 69	 1	 1.1	 0.9;
	 13	 1	 28.87	 6.12	 0	 0	 1	 1	 0	 69	 1	 1.1	 0.9;
	 14	 1	 6.28	 1.58	 0	 0	 1	 1	 0	 69	 1	 1.1	 0.9;
	 15	 1	 16.6	 3.89	 0	 0	 1	 1	 0	 69	 1	 1.1	 0.9;
	 16	 1	 17.02	 5.19	 0	 0	 1	 1	 0	 69	 1	 1.1	 0.9;
	 17	 1	 20.5	 6.21	 0	 0	 1	 1	 0	 69	 1	 1.1	 0.9;
	 18	 1	 12.27	 1.76	 0	 0	 1	 1	 0	 69	 1	 1.1	 0.9;
	 19	 1	 0	 0	 0	 0	 1	 1	 0	 138	 1	 1.1	 0.9;
	 20	 1	 0	 0	 0	 0	 1	 1	 0	 138	 1	 1.1	 0.9;
	 21	 1	 11.3	 2.6	 0	 0	 1	 1	 0	 138	 1	 1.1	 0.9;
	 22	 1	 15.2	 2.32	 0	 0	 1	 1	 0	 69	 1	 1.1	 0.9;
	 23	 1	 6.56	 1.58	 0	 0	 1	 1	 0	 69	 1	 1.1	 0.9;
	 24	 1	 10.32	 2.04	 0	 0	 1	 1	 0	 69	 1	 1.1	 0.9;
	 25	 1	 36.68	 7.79	 0	 0	 1	 1	 0	 138	 1	 1.1	 0.9;
	 26	 1	 0	 0	 0	 0	 1	 1	 0	 138	 1	 1.1	 0.9;
	 27	 1	 7.95	 1.95	 0	 0	 1	 1	 0	 69	 1	 1.1	 0.9;
	 28	 1	 9.21	 2.32	 0	 0	 1	 1	 0	 69	 1	 1.1	 0.9;
	 29	 1	 13.81	 4.08	 0	 0	 1	 1	 0	 69	 1	 1.1	 0.9;
	 30	 1	 10.88	 3.15	 0	 0	 1	 1	 0	 69	 1	 1.1	 0.9;
	 31	 1	 0	 0	 0	 0	 1	 1	 0	 500	 1	 1.1	 0.9;
	 32	 1	 13.11	 2.5	 0	 0	 1	 1	 0	 69	 1	 1.1	 0.9;
	 33	 1	 9.35	 2.87	 0	 0	 1	 1	 0	 69	 1	 1.1	 0.9;
	 34	 1	 0	 0	 0	 0	 1	 1	 0	 138	 1	 1.1	 0.9;
	 35	 1	 4.19	 1.21	 0	 0	 1	 1	 0	 69	 1	 1.1	 0.9;
	 36	 1	 5.02	 1.21	 0	 0	 1	 1	 0	 69	 1	 1.1	 0.9;
	 37	 1	 0	 0	 0	 0	 1	 1	 0	 138	 1	 1.1	 0.9;
	 38	 1	 8.51	 2.32	 0	 0	 1	 1	 0	 69	 1	 1.1	 0.9;
	 39	 1	 9.62	 2.32	 0	 0	 1	 1	 0	 69	 1	 1.1	 0.9;
	 40	 1	 5.72	 1.76	 0	 0	 1	 1	 0	 69	 1	 1.1	 0.9;
	 41	 1	 8.51	 2.13	 0	 0	 1	 1	 0	 69	 1	 1.1	 0.9;
	 42	 1	 16.74	 4.45	 0	 0	 1	 1	 0	 69	 1	 1.1	 0.9;
	 43	 1	 0	 0	 0	 0	 1	 1	 0	 138	 1	 1.1	 0.9;
	 44	 1	 0	 0	 0	 0	 1	 1	 0	 138	 1	 1.1	 0.9;
	 45	 1	 0	 0	 0	 0	 1	 1	 0	 138	 1	 1.1	 0.9;
	 46	 1	 17.3	 4.82	 0	 0	 1	 1	 0	 69	 1	 1.1	 0.9;
	 47	 1	 6.42	 1.58	 0	 0	 1	 1	 0	 69	 1	 1.1	 0.9;
	 48	 1	 9.9	 2.78	 0	 0	 1	 1	 0	 69	 1	 1.1	 0.9;
	 49	 1	 9.76	 2.6	 0	 0	 1	 1	 0	 69	 1	 1.1	 0.9;
	 50	 1	 39.19	 10.84	 0	 0	 1	 1	 0	 69	 1	 1.1	 0.9;
	 51	 1	 0	 0	 0	 0	 1	 1	 0	 138	 1	 1.1	 0.9;
	 52	 1	 34.59	 9.64	 0	 0	 1	 1	 0	 69	 1	 1.1	 0.9;
	 53	 1	 12	 3.06	 0	 0	 1	 1	 0	 69	 1	 1.1	 0.9;
	 54	 1	 0	 0	 0	 0	 1	 1	 0	 138	 1	 1.1	 0.9;
	 55	 1	 10.88	 2.41	 0	 0	 1	 1	 0	 138	 1	 1.1	 0.9;
	 56	 1	 1.95	 0.56	 0	 0	 1	 1	 0	 138	 1	 1.1	 0.9;
	 57	 1	 0	 0	 0	 0	 1	 1	 0	 138	 1	 1.1	 0.9;
	 58	 1	 0	 0	 0	 0	 1	 1	 0	 138	 1	 1.1	 0.9;
	 59	 1	 55.09	 11.59	 0	 0	 1	 1	 0	 138	 1	 1.1	 0.9;
	 60	 1	 34.03	 9.27	 0	 0	 1	 1	 0	 138	 1	 1.1	 0.9;
	 61	 1	 41.01	 11.03	 0	 0	 1	 1	 0	 138	 1	 1.1	 0.9;
	 62	 1	 0	 0	 0	 0	 1	 1	 0	 138	 1	 1.1	 0.9;
	 63	 1	 2.93	 0.74	 0	 0	 1	 1	 0	 69	 1	 1.1	 0.9;
	 64	 1	 6	 1.48	 0	 0	 1	 1	 0	 69	 1	 1.1	 0.9;
	 65	 1	 4.6	 1.21	 0	 0	 1	 1	 0	 138	 1	 1.1	 0.9;
	 66	 1	 0	 0	 0	 0	 1	 1	 0	 138	 1	 1.1	 0.9;
	 67	 1	 0	 0	 0	 0	 1	 1	 0	 138	 1	 1.1	 0.9;
	 68	 1	 0	 0	 0	 0	 1	 1	 0	 138	 1	 1.1	 0.9;
	 69	 1	 15.48	 2.87	 0	 0	 1	 1	 0	 69	 1	 1.1	 0.9;
	 70	 1	 15.06	 3.62	 0	 0	 1	 1	 0	 69	 1	 1.1	 0.9;
	 71	 1	 10.04	 2.5	 0	 0	 1	 1	 0	 69	 1	 1.1	 0.9;
	 72	 1	 7.81	 2.22	 0	 0	 1	 1	 0	 69	 1	 1.1	 0.9;
	 73	 1	 10.46	 3.24	 0	 0	 1	 1	 0	 69	 1	 1.1	 0.9;
	 74	 1	 12.13	 3.62	 0	 0	 1	 1	 0	 69	 1	 1.1	 0.9;
	 75	 1	 6	 1.85	 0	 0	 1	 1	 0	 69	 1	 1.1	 0.9;
	 76	 1	 5.72	 1.48	 0	 0	 1	 1	 0	 69	 1	 1.1	 0.9;
	 77	 1	 0	 0	 0	 0	 1	 1	 0	 345	 1	 1.1	 0.9;
	 78	 1	 12.83	 3.71	 0	 0	 1	 1	 0	 69	 1	 1.1	 0.9;
	 79	 1	 3.35	 0.83	 0	 0	 1	 1	 0	 138	 1	 1.1	 0.9;
	 80	 1	 0	 0	 0	 0	 1	 1	 0	 138	 1	 1.1	 0.9;
	 81	 1	 14.51	 4.36	 0	 0	 1	 1	 0	 138	 1	 1.1	 0.9;
	 82	 1	 5.58	 1.39	 0	 0	 1	 1	 0	 138	 1	 1.1	 0.9;
	 83	 1	 16.18	 4.17	 0	 0	 1	 1	 0	 69	 1	 1.1	 0.9;
	 84	 1	 13.81	 4.26	 0	 0	 1	 1	 0	 69	 1	 1.1	 0.9;
	 85	 1	 13.11	 2.97	 0	 0	 1	 1	 0	 69	 1	 1.1	 0.9;
	 86	 1	 12.83	 3.8	 0	 0	 1	 1	 0	 69	 1	 1.1	 0.9;
	 87	 1	 11.44	 3.06	 0	 0	 1	 1	 0	 69	 1	 1.1	 0.9;
	 88	 1	 22.6	 6.39	 0	 0	 1	 1	 0	 69	 1	 1.1	 0.9;
	 89	 1	 19.25	 5.28	 0	 0	 1	 1	 0	 69	 1	 1.1	 0.9;
	 90	 1	 11.44	 3.34	 0	 0	 1	 1	 0	 69	 1	 1.1	 0.9;
	 91	 1	 0	 0	 0	 0	 1	 1	 0	 138	 1	 1.1	 0.9;
	 92	 1	 12.97	 3.89	 0	 0	 1	 1	 0	 69	 1	 1.1	 0.9;
	 93	 1	 0	 0	 0	 0	 1	 1	 0	 138	 1	 1.1	 0.9;
	 94	 1	 19.95	 4.82	 0	 0	 1	 1	 0	 69	 1	 1.1	 0.9;
	 95	 1	 13.95	 3.8	 0	 0	 1	 1	 0	 69	 1	 1.1	 0.9;
	 96	 1	 7.95	 2.5	 0	 0	 1	 1	 0	 69	 1	 1.1	 0.9;
	 97	 1	 17.99	 5.65	 0	 0	 1	 1	 0	 69	 1	 1.1	 0.9;
	 98	 1	 0	 0	 0	 0	 1	 1	 0	 138	 1	 1.1	 0.9;
	 99	 1	 0	 0	 0	 0	 1	 1	 0	 138	 1	 1.1	 0.9;
	 100	 1	 10.46	 2.5	 0	 0	 1	 1	 0	 69	 1	 1.1	 0.9;
	 101	 1	 0	 0	 0	 0	 1	 1	 0	 138	 1	 1.1	 0.9;
	 102	 1	 13.95	 2.97	 0	 0	 1	 1	 0	 69	 1	 1.1	 0.9;
	 103	 1	 18.83	 5.28	 0	 0	 1	 1	 0	 69	 1	 1.1	 0.9;
	 104	 1	 0	 0	 0	 0	 1	 1	 0	 138	 1	 1.1	 0.9;
	 105	 1	 14.09	 4.36	 0	 0	 1	 1	 0	 69	 1	 1.1	 0.9;
	 106	 1	 13.81	 4.36	 0	 0	 1	 1	 0	 69	 1	 1.1	 0.9;
	 107	 1	 19.11	 5.1	 0	 0	 1	 1	 0	 69	 1	 1.1	 0.9;
	 108	 1	 3.21	 0.83	 0	 0	 1	 1	 0	 69	 1	 1.1	 0.9;
	 109	 1	 0	 0	 0	 0	 1	 1	 0	 138	 1	 1.1	 0.9;
	 110	 1	 20.5	 5.84	 0	 0	 1	 1	 0	 69	 1	 1.1	 0.9;
	 111	 1	 9.76	 2.6	 0	 0	 1	 1	 0	 69	 1	 1.1	 0.9;
	 112	 1	 10.04	 3.15	 0	 0	 1	 1	 0	 69	 1	 1.1	 0.9;
	 113	 1	 0	 0	 0	 0	 1	 1	 0	 138	 1	 1.1	 0.9;
	 114	 1	 11.16	 2.87	 0	 0	 1	 1	 0	 69	 1	 1.1	 0.9;
	 115	 1	 13.81	 3.34	 0	 0	 1	 1	 0	 69	 1	 1.1	 0.9;
	 116	 1	 11.44	 2.97	 0	 0	 1	 1	 0	 69	 1	 1.1	 0.9;
	 117	 1	 12.97	 3.24	 0	 0	 1	 1	 0	 69	 1	 1.1	 0.9;
	 118	 1	 0	 0	 0	 0	 1	 1	 0	 138	 1	 1.1	 0.9;
	 119	 1	 0	 0	 0	 0	 1	 1	 0	 500	 1	 1.1	 0.9;
	 120	 1	 4.88	 1.48	 0	 0	 1	 1	 0	 69	 1	 1.1	 0.9;
	 121	 1	 0	 0	 0	 0	 1	 1	 0	 138	 1	 1.1	 0.9;
	 122	 1	 0	 0	 0	 0	 1	 1	 0	 345	 1	 1.1	 0.9;
	 123	 1	 8.79	 2.41	 0	 0	 1	 1	 0	 138	 1	 1.1	 0.9;
	 124	 1	 0	 0	 0	 0	 1	 1	 0	 138	 1	 1.1	 0.9;
	 125	 1	 0	 0	 0	 0	 1	 1	 0	 500	 1	 1.1	 0.9;
	 126	 1	 0	 0	 0	 0	 1	 1	 0	 138	 1	 1.1	 0.9;
	 127	 1	 10.6	 2.69	 0	 0	 1	 1	 0	 69	 1	 1.1	 0.9;
	 128	 1	 7.25	 1.85	 0	 0	 1	 1	 0	 69	 1	 1.1	 0.9;
	 129	 1	 0	 0	 0	 0	 1	 1	 0	 138	 1	 1.1	 0.9;
	 130	 1	 0	 0	 0	 0	 1	 1	 0	 500	 1	 1.1	 0.9;
	 131	 1	 7.53	 2.13	 0	 0	 1	 1	 0	 69	 1	 1.1	 0.9;
	 132	 1	 0	 0	 0	 0	 1	 1	 0	 138	 1	 1.1	 0.9;
	 133	 1	 3.63	 1.11	 0	 0	 1	 1	 0	 69	 1	 1.1	 0.9;
	 134	 1	 4.6	 1.39	 0	 0	 1	 1	 0	 69	 1	 1.1	 0.9;
	 135	 1	 15.62	 4.73	 0	 0	 1	 1	 0	 69	 1	 1.1	 0.9;
	 136	 1	 7.95	 2.41	 0	 0	 1	 1	 0	 69	 1	 1.1	 0.9;
	 137	 1	 0	 0	 0	 0	 1	 1	 0	 138	 1	 1.1	 0.9;
	 138	 1	 10.46	 3.15	 0	 0	 1	 1	 0	 69	 1	 1.1	 0.9;
	 139	 1	 13.39	 4.26	 0	 0	 1	 1	 0	 138	 1	 1.1	 0.9;
	 140	 1	 0	 0	 0	 0	 1	 1	 0	 138	 1	 1.1	 0.9;
	 141	 1	 18.41	 5.65	 0	 0	 1	 1	 0	 69	 1	 1.1	 0.9;
	 142	 1	 16.32	 4.63	 0	 0	 1	 1	 0	 69	 1	 1.1	 0.9;
	 143	 1	 0	 0	 0	 0	 1	 1	 0	 138	 1	 1.1	 0.9;
	 144	 1	 27.62	 7.51	 0	 0	 1	 1	 0	 69	 1	 1.1	 0.9;
	 145	 1	 12.13	 3.71	 0	 0	 1	 1	 0	 69	 1	 1.1	 0.9;
	 146	 1	 16.32	 3.89	 0	 0	 1	 1	 0	 500	 1	 1.1	 0.9;
	 147	 1	 0	 0	 0	 0	 1	 1	 0	 138	 1	 1.1	 0.9;
	 148	 1	 6.83	 1.85	 0	 0	 1	 1	 0	 69	 1	 1.1	 0.9;
	 149	 1	 6.14	 1.67	 0	 0	 1	 1	 0	 69	 1	 1.1	 0.9;
	 150	 1	 24.55	 6.39	 0	 0	 1	 1	 0	 69	 1	 1.1	 0.9;
	 151	 1	 0	 0	 0	 0	 1	 1	 0	 138	 1	 1.1	 0.9;
	 152	 1	 0	 0	 0	 0	 1	 1	 0	 138	 1	 1.1	 0.9;
	 153	 1	 14.37	 3.89	 0	 0	 1	 1	 0	 69	 1	 1.1	 0.9;
	 154	 1	 12.83	 3.71	 0	 0	 1	 1	 0	 69	 1	 1.1	 0.9;
	 155	 1	 6.14	 1.67	 0	 0	 1	 1	 0	 69	 1	 1.1	 0.9;
	 156	 1	 10.04	 2.5	 0	 0	 1	 1	 0	 69	 1	 1.1	 0.9;
	 157	 1	 0	 0	 0	 0	 1	 1	 0	 500	 1	 1.1	 0.9;
	 158	 1	 11.72	 3.43	 0	 0	 1	 1	 0	 69	 1	 1.1	 0.9;
	 159	 1	 22.87	 5.84	 0	 0	 1	 1	 0	 500	 1	 1.1	 0.9;
	 160	 1	 0	 0	 0	 0	 1	 1	 0	 500	 1	 1.1	 0.9;
	 161	 1	 0	 0	 0	 0	 1	 1	 0	 138	 1	 1.1	 0.9;
	 162	 1	 12.97	 3.89	 0	 0	 1	 1	 0	 69	 1	 1.1	 0.9;
	 163	 1	 15.34	 3.8	 0	 0	 1	 1	 0	 69	 1	 1.1	 0.9;
	 164	 1	 19.39	 5.75	 0	 0	 1	 1	 0	 69	 1	 1.1	 0.9;
	 165	 1	 15.34	 3.8	 0	 0	 1	 1	 0	 500	 1	 1.1	 0.9;
	 166	 1	 0	 0	 0	 0	 1	 1	 0	 500	 1	 1.1	 0.9;
	 167	 1	 14.09	 4.36	 0	 0	 1	 1	 0	 69	 1	 1.1	 0.9;
	 168	 1	 0	 0	 0	 0	 1	 1	 0	 500	 1	 1.1	 0.9;
	 169	 1	 14.09	 4.26	 0	 0	 1	 1	 0	 69	 1	 1.1	 0.9;
	 170	 1	 0	 0	 0	 0	 1	 1	 0	 138	 1	 1.1	 0.9;
	 171	 1	 0	 0	 0	 0	 1	 1	 0	 138	 1	 1.1	 0.9;
	 172	 1	 11.44	 2.97	 0	 0	 1	 1	 0	 69	 1	 1.1	 0.9;
	 173	 1	 0	 0	 0	 0	 1	 1	 0	 138	 1	 1.1	 0.9;
	 174	 1	 11.02	 2.78	 0	 0	 1	 1	 0	 69	 1	 1.1	 0.9;
	 175	 1	 9.07	 2.6	 0	 0	 1	 1	 0	 69	 1	 1.1	 0.9;
	 176	 1	 0	 0	 0	 0	 1	 1	 0	 138	 1	 1.1	 0.9;
	 177	 1	 16.88	 4.26	 0	 0	 1	 1	 0	 69	 1	 1.1	 0.9;
	 178	 1	 7.39	 1.95	 0	 0	 1	 1	 0	 69	 1	 1.1	 0.9;
	 179	 1	 0	 0	 0	 0	 1	 1	 0	 138	 1	 1.1	 0.9;
	 180	 1	 0	 0	 0	 0	 1	 1	 0	 500	 1	 1.1	 0.9;
	 181	 1	 5.3	 1.48	 0	 0	 1	 1	 0	 69	 1	 1.1	 0.9;
	 182	 1	 22.18	 6.12	 0	 0	 1	 1	 0	 345	 1	 1.1	 0.9;
	 183	 1	 8.37	 2.04	 0	 0	 1	 1	 0	 138	 1	 1.1	 0.9;
	 184	 1	 9.07	 2.22	 0	 0	 1	 1	 0	 69	 1	 1.1	 0.9;
	 185	 1	 7.81	 2.13	 0	 0	 1	 1	 0	 69	 1	 1.1	 0.9;
	 186	 1	 14.37	 4.45	 0	 0	 1	 1	 0	 69	 1	 1.1	 0.9;
	 187	 1	 32.08	 8.53	 0	 0	 1	 1	 0	 69	 1	 1.1	 0.9;
	 188	 1	 14.78	 3.98	 0	 0	 1	 1	 0	 69	 1	 1.1	 0.9;
	 189	 1	 0	 0	 0	 0	 1	 1	 0	 138	 1	 1.1	 0.9;
	 190	 1	 20.08	 5.28	 0	 0	 1	 1	 0	 69	 1	 1.1	 0.9;
	 191	 1	 6.14	 1.76	 0	 0	 1	 1	 0	 69	 1	 1.1	 0.9;
	 192	 1	 9.48	 2.78	 0	 0	 1	 1	 0	 69	 1	 1.1	 0.9;
	 193	 1	 0	 0	 0	 0	 1	 1	 0	 138	 1	 1.1	 0.9;
	 194	 1	 18.69	 4.54	 0	 0	 1	 1	 0	 69	 1	 1.1	 0.9;
	 195	 1	 0	 0	 0	 0	 1	 1	 0	 138	 1	 1.1	 0.9;
	 196	 1	 18.41	 5	 0	 0	 1	 1	 0	 69	 1	 1.1	 0.9;
	 197	 1	 0	 0	 0	 0	 1	 1	 0	 138	 1	 1.1	 0.9;
	 198	 1	 0	 0	 0	 0	 1	 1	 0	 138	 1	 1.1	 0.9;
	 199	 1	 9.48	 2.41	 0	 0	 1	 1	 0	 69	 1	 1.1	 0.9;
	 200	 1	 9.48	 2.87	 0	 0	 1	 1	 0	 69	 1	 1.1	 0.9;
...
];

mpc_regionR1.gen = [
%	bus         Pg          Qg          Qmax        Qmin        Vg          mBase       status      Pmax        Pmin        Pc1         Pc2         Qc1min      Qc1max      Qc2min      Qc2max      ramp_agc    ramp_10     ramp_30     ramp_q      apf         
	 1	 7.75	 0	 22.8	-22.8	 1	 100	 1	 13	 2.5;
	 1	 12.25	 0	 22.8	-22.8	 1	 100	 1	 22	 2.5;
	 1	 9.75	 0	 22.8	-22.8	 1	 100	 1	 17	 2.5;
	 1	 12.25	 0	 22.8	-22.8	 1	 100	 1	 22	 2.5;
	 1	 10.25	 0	 22.8	-22.8	 1	 100	 1	 18	 2.5;
	 1	 4.75	 0	 22.8	-22.8	 1	 100	 1	 7	 2.5;
	 1	 201	 0.4	 159.8	-159	 1	 100	 1	 318	 84;
	 1	 156	 40.9	 195.8	-114	 1	 100	 1	 228	 84;
	 1	 84.5	 0	 70	-70	 1	 100	 1	 139	 30;
	 2	 206	 0	 191	-191	 1	 100	 1	 382	 30;
	 2	 211.5	 0	 197	-197	 1	 100	 1	 393	 30;
	 2	 203.5	 0	 189	-189	 1	 100	 1	 377	 30;
	 2	 236.5	 0	 222	-222	 1	 100	 1	 443	 30;
	 2	 368	 0	 353	-353	 1	 100	 1	 706	 30;
	 2	 254.7	 0	 231	-231	 1	 100	 1	 461	 48.4;
	 2	 324	 0	 309	-309	 1	 100	 1	 618	 30;
	 3	 1.75	 0	 8.2	-8.2	 1	 100	 1	 3	 0.5;
	 253	 54.75	 0	 54	-54	 1	 100	 1	 107	 2.5;
	 253	 54.75	 0	 54	-54	 1	 100	 1	 107	 2.5;
	 253	 60	 0	 58	-58	 1	 100	 1	 115	 5;
	 253	 109.5	 0	 107	-107	 1	 100	 1	 214	 5;
	 253	 75.5	 0	 73	-73	 1	 100	 1	 146	 5;
	 253	 78.75	 0	 78	-78	 1	 100	 1	 155	 2.5;
	 253	 93.5	 0	 91	-91	 1	 100	 1	 182	 5;
	 253	 500	 0	 458	-458	 1	 100	 1	 916	 84;
	 253	 56.75	 0	 56	-56	 1	 100	 1	 111	 2.5;
	 253	 193.75	 0	 193	-193	 1	 100	 1	 385	 2.5;
	 253	 60.75	 0	 60	-60	 1	 100	 1	 119	 2.5;
	 253	 72.25	 0	 71	-71	 1	 100	 1	 142	 2.5;
	 253	 60.75	 0	 60	-60	 1	 100	 1	 119	 2.5;
	 253	 70.25	 0	 69	-69	 1	 100	 1	 138	 2.5;
	 253	 122.25	 0	 121	-121	 1	 100	 1	 242	 2.5;
];

mpc_regionR1.branch = [
%	fbus        tbus        r           x           b           rateA       rateB       rateC       ratio       angle       status      angmin      angmax      
	 1	 228	 8.02344e-05	 0.00143412	 0.101785	 1448	 1448	 1448	 0	 0	 1	-30	 30;
	 1	 253	 1e-07	 0.0001	 0	 750	 937.5	 1125	 0	 0	 1	-30	 30;
	 1	 253	 1e-07	 0.0001	 0	 750	 937.5	 1125	 0	 0	 1	-30	 30;
	 2	 130	 0.000764861	 0.0137016	 0.975666	 1573	 1573	 1573	 0	 0	 1	-30	 30;
	 2	 159	 0.000685001	 0.0122655	 0.872823	 1387	 1387	 1387	 0	 0	 1	-30	 30;
	 3	 227	 0.0295264	 0.0792691	 0.00112283	 59	 59	 59	 0	 0	 1	-30	 30;
	 3	 233	 0.0510112	 0.118415	 0.00225483	 59	 59	 59	 0	 0	 1	-30	 30;
	 3	 351	 0.0133507	 0.0326789	 0.00055874	 59	 59	 59	 0	 0	 1	-30	 30;
	 4	 252	 0.0535401	 0.131058	 0.00224096	 59	 59	 59	 0	 0	 1	-30	 30;
	 4	 313	 0.0834638	 0.197668	 0.00361453	 59	 59	 59	 0	 0	 1	-30	 30;
	 5	 6	 0.0338277	 0.0828024	 0.00141578	 59	 59	 59	 0	 0	 1	-30	 30;
	 5	 310	 0.0451065	 0.106815	 0.001953	 59	 59	 59	 0	 0	 1	-30	 30;
	 5	 313	 0.0325194	 0.0835958	 0.00129377	 59	 59	 59	 0	 0	 1	-30	 30;
	 6	 8	 0.0368757	 0.0990007	 0.00140234	 59	 59	 59	 0	 0	 1	-30	 30;
	 6	 255	 0.0651794	 0.159554	 0.00272829	 59	 59	 59	 0	 0	 1	-30	 30;
	 7	 8	 0.0387906	 0.125708	 0.00150782	 64	 64	 64	 0	 0	 1	-30	 30;
	 7	 12	 0.0530749	 0.129919	 0.00222148	 59	 59	 59	 0	 0	 1	-30	 30;
	 8	 14	 0.110281	 0.250212	 0.00499288	 59	 59	 59	 0	 0	 1	-30	 30;
	 8	 255	 0.0349921	 0.0924798	 0.00135292	 59	 59	 59	 0	 0	 1	-30	 30;
	 8	 314	 0.107903	 0.244815	 0.00488514	 59	 59	 59	 0	 0	 1	-30	 30;
	 9	 19	 0.0373797	 0.0988305	 0.0231446	 118	 118	 118	 0	 0	 1	-30	 30;
	 9	 312	 0.0325126	 0.0783757	 0.0221367	 118	 118	 118	 0	 0	 1	-30	 30;
	 11	 16	 0.211061	 0.55828	 0.0081755	 59	 59	 59	 0	 0	 1	-30	 30;
	 11	 18	 0.119175	 0.291789	 0.00499058	 59	 59	 59	 0	 0	 1	-30	 30;
	 11	 200	 0.161435	 0.374929	 0.00714306	 59	 59	 59	 0	 0	 1	-30	 30;
	 12	 13	 0.0462382	 0.113183	 0.00193527	 59	 59	 59	 0	 0	 1	-30	 30;
	 13	 314	 0.10069	 0.272311	 0.0038032	 59	 59	 59	 0	 0	 1	-30	 30;
	 14	 15	 0.0969606	 0.237376	 0.00405949	 59	 59	 59	 0	 0	 1	-30	 30;
	 14	 256	 0.0815868	 0.222153	 0.00305936	 59	 59	 59	 0	 0	 1	-30	 30;
	 15	 16	 0.0550919	 0.145606	 0.00213021	 59	 59	 59	 0	 0	 1	-30	 30;
	 16	 17	 0.063171	 0.154637	 0.0026442	 59	 59	 59	 0	 0	 1	-30	 30;
	 20	 21	 0.00133176	 0.0035196	 0.000823809	 118	 118	 118	 0	 0	 1	-30	 30;
	 20	 104	 0.00793316	 0.0203933	 0.00504987	 118	 118	 118	 0	 0	 1	-30	 30;
	 20	 121	 0.00374714	 0.00941932	 0.00244021	 118	 118	 118	 0	 0	 1	-30	 30;
	 21	 37	 0.00130916	 0.00329086	 0.000852542	 118	 118	 118	 0	 0	 1	-30	 30;
	 21	 101	 0.00979433	 0.0258853	 0.00605902	 118	 118	 118	 0	 0	 1	-30	 30;
	 22	 23	 0.00673018	 0.0156224	 0.00029746	 59	 59	 59	 0	 0	 1	-30	 30;
	 23	 24	 0.0119269	 0.0291938	 0.000499153	 59	 59	 59	 0	 0	 1	-30	 30;
	 24	 258	 0.0104856	 0.0243396	 0.000463441	 59	 59	 59	 0	 0	 1	-30	 30;
	 25	 34	 0.00172794	 0.00401097	 0.00122194	 118	 118	 118	 0	 0	 1	-30	 30;
	 25	 287	 0.00504575	 0.0123506	 0.00337874	 118	 118	 118	 0	 0	 1	-30	 30;
	 26	 287	 0.0022026	 0.00539134	 0.00147489	 118	 118	 118	 0	 0	 1	-30	 30;
	 28	 260	 0.0130717	 0.0303426	 0.000577744	 59	 59	 59	 0	 0	 1	-30	 30;
	 28	 278	 0.0162129	 0.038392	 0.000701926	 59	 59	 59	 0	 0	 1	-30	 30;
	 28	 288	 0.00868653	 0.0218356	 0.00035355	 59	 59	 59	 0	 0	 1	-30	 30;
	 29	 277	 0.0110728	 0.0271031	 0.000463406	 59	 59	 59	 0	 0	 1	-30	 30;
	 30	 260	 0.00573649	 0.0140413	 0.000240076	 59	 59	 59	 0	 0	 1	-30	 30;
	 30	 288	 0.0108536	 0.0246192	 0.000491135	 59	 59	 59	 0	 0	 1	-30	 30;
	 31	 119	 8.69371e-05	 0.000621419	 0.0227167	 795	 795	 795	 0	 0	 1	-30	 30;
	 31	 180	 0.00044102	 0.00315256	 0.115255	 795	 795	 795	 0	 0	 1	-30	 30;
	 31	 235	 0.000666423	 0.0047642	 0.174196	 795	 795	 795	 0	 0	 1	-30	 30;
	 32	 33	 0.00805861	 0.02475	 0.000266971	 59	 59	 59	 0	 0	 1	-30	 30;
	 32	 41	 0.00627557	 0.0153608	 0.000262637	 59	 59	 59	 0	 0	 1	-30	 30;
	 33	 46	 0.00956783	 0.0226564	 0.000414229	 59	 59	 59	 0	 0	 1	-30	 30;
	 34	 51	 0.0046782	 0.0117598	 0.00304655	 118	 118	 118	 0	 0	 1	-30	 30;
	 35	 36	 0.00514696	 0.012938	 0.000209486	 59	 59	 59	 0	 0	 1	-30	 30;
	 35	 120	 0.00457004	 0.0120778	 0.000176685	 59	 59	 59	 0	 0	 1	-30	 30;
	 36	 262	 0.00587437	 0.0143788	 0.000245846	 59	 59	 59	 0	 0	 1	-30	 30;
	 36	 289	 0.00693173	 0.0186092	 0.00026359	 59	 59	 59	 0	 0	 1	-30	 30;
	 37	 121	 0.00122845	 0.00285154	 0.00086872	 118	 118	 118	 0	 0	 1	-30	 30;
	 38	 39	 0.0054205	 0.0128356	 0.000234674	 59	 59	 59	 0	 0	 1	-30	 30;
	 38	 52	 0.00597964	 0.0150312	 0.000243377	 59	 59	 59	 0	 0	 1	-30	 30;
	 39	 52	 0.00841053	 0.0199159	 0.000364124	 59	 59	 59	 0	 0	 1	-30	 30;
	 43	 44	 0.00231578	 0.00582125	 0.00150807	 118	 118	 118	 0	 0	 1	-30	 30;
	 45	 67	 0.00298685	 0.00801863	 0.00181728	 118	 118	 118	 0	 0	 1	-30	 30;
	 45	 274	 0.00581874	 0.015378	 0.00359947	 118	 118	 118	 0	 0	 1	-30	 30;
	 46	 48	 0.00552924	 0.013534	 0.000231403	 59	 59	 59	 0	 0	 1	-30	 30;
	 47	 48	 0.00745091	 0.0176436	 0.000322578	 59	 59	 59	 0	 0	 1	-30	 30;
	 48	 50	 0.00484589	 0.0112485	 0.000214178	 59	 59	 59	 0	 0	 1	-30	 30;
	 49	 268	 0.0073589	 0.0180125	 0.000307975	 59	 59	 59	 0	 0	 1	-30	 30;
	 49	 271	 0.00662325	 0.0162118	 0.000277188	 59	 59	 59	 0	 0	 1	-30	 30;
	 50	 271	 0.013659	 0.034335	 0.000555936	 59	 59	 59	 0	 0	 1	-30	 30;
	 50	 291	 0.00658365	 0.037778	 0.000569562	 96	 96	 96	 0	 0	 1	-30	 30;
	 51	 57	 0.000821137	 0.0028617	 0.000663542	 142	 142	 142	 0	 0	 1	-30	 30;
	 52	 291	 0.00595184	 0.0276135	 0.000322242	 80	 80	 80	 0	 0	 1	-30	 30;
	 53	 289	 0.00527839	 0.01292	 0.000220904	 59	 59	 59	 0	 0	 1	-30	 30;
	 53	 291	 0.00457091	 0.0137577	 0.000269001	 71	 71	 71	 0	 0	 1	-30	 30;
	 54	 55	 0.00225263	 0.00604751	 0.00137056	 118	 118	 118	 0	 0	 1	-30	 30;
	 55	 294	 0.00182356	 0.00472607	 0.00142973	 128	 128	 128	 0	 0	 1	-30	 30;
	 56	 57	 0.00110765	 0.00361265	 0.000959073	 142	 142	 142	 0	 0	 1	-30	 30;
	 56	 124	 0.000956453	 0.00328096	 0.000786	 142	 142	 142	 0	 0	 1	-30	 30;
	 56	 290	 0.00145968	 0.00351754	 0.000993125	 118	 118	 118	 0	 0	 1	-30	 30;
	 58	 124	 0.0013015	 0.00365079	 0.000939678	 128	 128	 128	 0	 0	 1	-30	 30;
	 58	 294	 0.00121149	 0.00432781	 0.00137475	 159	 159	 159	 0	 0	 1	-30	 30;
	 59	 60	 0.00184469	 0.00467256	 0.00148076	 128	 128	 144	 0	 0	 1	-30	 30;
	 59	 343	 0.00257534	 0.00952219	 0.00282087	 233	 233	 233	 0	 0	 1	-30	 30;
	 60	 62	 0.0028236	 0.00746226	 0.00174665	 118	 118	 118	 0	 0	 1	-30	 30;
	 61	 79	 0.00173926	 0.00459654	 0.00107588	 118	 118	 118	 0	 0	 1	-30	 30;
	 61	 82	 0.00241101	 0.00610702	 0.00193535	 128	 128	 128	 0	 0	 1	-30	 30;
	 61	 343	 0.002877	 0.011234	 0.003986	 244	 244	 244	 0	 0	 1	-30	 30;
	 62	 123	 0.00212644	 0.00675192	 0.00189412	 142	 142	 142	 0	 0	 1	-30	 30;
	 62	 294	 0.00275511	 0.00846081	 0.00254024	 142	 142	 142	 0	 0	 1	-30	 30;
	 64	 292	 0.00566766	 0.0138728	 0.000237195	 59	 59	 59	 0	 0	 1	-30	 30;
	 65	 79	 0.00246637	 0.00662134	 0.00150061	 118	 118	 118	 0	 0	 1	-30	 30;
	 65	 123	 0.00175968	 0.00424049	 0.00119724	 118	 118	 118	 0	 0	 1	-30	 30;
	 66	 67	 0.00176919	 0.0041894	 0.00122552	 118	 118	 118	 0	 0	 1	-30	 30;
	 66	 123	 0.00105078	 0.00367667	 0.0012184	 159	 159	 159	 0	 0	 1	-30	 30;
	 67	 68	 0.0012276	 0.00300481	 0.000822012	 118	 118	 118	 0	 0	 1	-30	 30;
	 69	 276	 0.00847332	 0.0204191	 0.000360315	 59	 59	 59	 0	 0	 1	-30	 30;
	 70	 71	 0.00617095	 0.0151047	 0.000258258	 59	 59	 59	 0	 0	 1	-30	 30;
	 71	 72	 0.00579638	 0.0139681	 0.000246481	 59	 59	 59	 0	 0	 1	-30	 30;
	 71	 73	 0.0113305	 0.030848	 0.000424757	 59	 59	 59	 0	 0	 1	-30	 30;
	 71	 75	 0.0083965	 0.0194903	 0.000371108	 59	 59	 59	 0	 0	 1	-30	 30;
	 73	 85	 0.00724222	 0.018205	 0.000294765	 59	 59	 59	 0	 0	 1	-30	 30;
	 74	 83	 0.00665553	 0.0172783	 0.000262102	 59	 59	 59	 0	 0	 1	-30	 30;
	 75	 76	 0.00631112	 0.0149446	 0.000273232	 59	 59	 59	 0	 0	 1	-30	 30;
	 77	 286	 0.000529224	 0.00350718	 0.0338931	 549	 549	 549	 0	 0	 1	-30	 30;
	 77	 324	 0.000646068	 0.00456713	 0.0387117	 549	 549	 549	 0	 0	 1	-30	 30;
	 79	 82	 0.00216245	 0.00571495	 0.00133766	 118	 118	 118	 0	 0	 1	-30	 30;
	 80	 81	 0.00173123	 0.00472953	 0.00128526	 128	 128	 128	 0	 0	 1	-30	 30;
	 81	 82	 0.00195483	 0.00637578	 0.00169262	 142	 142	 142	 0	 0	 1	-30	 30;
	 82	 345	 0.00216331	 0.00753926	 0.00174813	 142	 142	 142	 0	 0	 1	-30	 30;
	 83	 86	 0.00901165	 0.0213394	 0.000390149	 59	 59	 59	 0	 0	 1	-30	 30;
	 84	 296	 0.00895266	 0.0211997	 0.000387595	 59	 59	 59	 0	 0	 1	-30	 30;
	 85	 86	 0.00903863	 0.022124	 0.000378273	 59	 59	 59	 0	 0	 1	-30	 30;
	 85	 220	 0.0273669	 0.0648052	 0.00118486	 59	 59	 59	 0	 0	 1	-30	 30;
	 87	 296	 0.00998086	 0.0286542	 0.00035426	 59	 59	 59	 0	 0	 1	-30	 30;
	 89	 90	 0.00974813	 0.0238607	 0.000407967	 59	 59	 59	 0	 0	 1	-30	 30;
	 89	 94	 0.0161038	 0.0488221	 0.000540512	 59	 59	 59	 0	 0	 1	-30	 30;
	 90	 100	 0.0103198	 0.0239548	 0.000456115	 59	 59	 59	 0	 0	 1	-30	 30;
	 90	 277	 0.0107632	 0.025487	 0.00046598	 59	 59	 59	 0	 0	 1	-30	 30;
	 91	 93	 0.00196284	 0.00455624	 0.00138806	 118	 118	 118	 0	 0	 1	-30	 30;
	 91	 287	 0.00306482	 0.0097315	 0.00272999	 142	 142	 142	 0	 0	 1	-30	 30;
	 92	 135	 0.0129573	 0.0392828	 0.000434902	 59	 59	 59	 0	 0	 1	-30	 30;
	 94	 304	 0.0222857	 0.0537046	 0.00094768	 59	 59	 59	 0	 0	 1	-30	 30;
	 94	 323	 0.0126127	 0.0292773	 0.000557459	 59	 59	 59	 0	 0	 1	-30	 30;
	 95	 96	 0.00495786	 0.0133101	 0.00018853	 59	 59	 59	 0	 0	 1	-30	 30;
	 95	 97	 0.0124554	 0.0313096	 0.000506949	 59	 59	 59	 0	 0	 1	-30	 30;
	 95	 280	 0.0100071	 0.0268656	 0.000380537	 59	 59	 59	 0	 0	 1	-30	 30;
	 95	 296	 0.00797035	 0.0200353	 0.000324401	 59	 59	 59	 0	 0	 1	-30	 30;
	 97	 279	 0.0141738	 0.0346936	 0.000593189	 59	 59	 59	 0	 0	 1	-30	 30;
	 98	 325	 0.00334772	 0.00869098	 0.0021094	 118	 118	 118	 0	 0	 1	-30	 30;
	 99	 113	 0.00244448	 0.00656258	 0.00148729	 118	 118	 118	 0	 0	 1	-30	 30;
	 99	 126	 0.00261051	 0.00656211	 0.00170001	 118	 118	 118	 0	 0	 1	-30	 30;
	 100	 304	 0.0123132	 0.0301394	 0.00051532	 59	 59	 59	 0	 0	 1	-30	 30;
	 101	 104	 0.00321231	 0.00745658	 0.00227165	 118	 118	 118	 0	 0	 1	-30	 30;
	 101	 299	 0.0103821	 0.0329672	 0.00924892	 142	 142	 142	 0	 0	 1	-30	 30;
	 102	 105	 0.0122403	 0.0299608	 0.000512267	 59	 59	 59	 0	 0	 1	-30	 30;
	 103	 106	 0.0100601	 0.023822	 0.000435539	 59	 59	 59	 0	 0	 1	-30	 30;
	 103	 108	 0.0103103	 0.0259174	 0.000419642	 59	 59	 59	 0	 0	 1	-30	 30;
	 103	 282	 0.0139501	 0.0350669	 0.000567786	 59	 59	 59	 0	 0	 1	-30	 30;
	 105	 120	 0.0218826	 0.057832	 0.000846031	 59	 59	 59	 0	 0	 1	-30	 30;
	 106	 107	 0.0147359	 0.0389445	 0.00056972	 59	 59	 59	 0	 0	 1	-30	 30;
	 107	 288	 0.0221857	 0.0557692	 0.000902995	 59	 59	 59	 0	 0	 1	-30	 30;
	 108	 136	 0.0149335	 0.0400914	 0.000567876	 59	 59	 59	 0	 0	 1	-30	 30;
	 108	 300	 0.0308277	 0.0730005	 0.0013347	 59	 59	 59	 0	 0	 1	-30	 30;
	 109	 237	 0.00413433	 0.0103926	 0.00269236	 118	 118	 118	 0	 0	 1	-30	 30;
	 110	 112	 0.00872251	 0.0202471	 0.000385517	 59	 59	 59	 0	 0	 1	-30	 30;
	 113	 202	 0.00272225	 0.0071944	 0.00168395	 118	 118	 118	 0	 0	 1	-30	 30;
	 113	 348	 0.00818871	 0.0242348	 0.00450802	 118	 118	 118	 0	 0	 1	-30	 30;
	 114	 333	 0.00407685	 0.00997895	 0.000170619	 59	 59	 59	 0	 0	 1	-30	 30;
	 115	 116	 0.0104567	 0.0255951	 0.000437623	 59	 59	 59	 0	 0	 1	-30	 30;
	 115	 285	 0.0268116	 0.065628	 0.00112211	 59	 59	 59	 0	 0	 1	-30	 30;
	 116	 203	 0.00819031	 0.0185781	 0.000370619	 59	 59	 59	 0	 0	 1	-30	 30;
	 116	 207	 0.00801626	 0.0238785	 0.000274024	 59	 59	 59	 0	 0	 1	-30	 30;
	 117	 285	 0.0075065	 0.0198383	 0.000290214	 59	 59	 59	 0	 0	 1	-30	 30;
	 118	 237	 0.00386441	 0.00876569	 0.00279791	 118	 118	 118	 0	 0	 1	-30	 30;
	 119	 298	 0.000554904	 0.00396679	 0.14503	 795	 795	 795	 0	 0	 1	-30	 30;
	 121	 290	 0.00113819	 0.00543959	 0.00190491	 193	 193	 193	 0	 0	 1	-30	 30;
	 122	 293	 0.000176692	 0.00163446	 0.0155667	 653	 653	 653	 0	 0	 1	-30	 30;
	 125	 130	 0.000260646	 0.00465992	 0.330845	 1216	 1216	 1216	 0	 0	 1	-30	 30;
	 125	 238	 7.21787e-05	 0.00129013	 0.0915641	 1216	 1216	 1216	 0	 0	 1	-30	 30;
	 127	 300	 0.0602976	 0.145316	 0.00256445	 59	 59	 59	 0	 0	 1	-30	 30;
	 128	 300	 0.0369866	 0.0875856	 0.00160138	 59	 59	 59	 0	 0	 1	-30	 30;
	 129	 132	 0.00535777	 0.0126872	 0.0037114	 118	 118	 118	 0	 0	 1	-30	 30;
	 129	 244	 0.00970317	 0.0243918	 0.00631924	 118	 118	 118	 0	 0	 1	-30	 30;
	 130	 146	 0.00018935	 0.00350776	 0.23163	 1216	 1216	 1216	 0	 0	 1	-30	 30;
	 130	 298	 1e-07	 0.0001	 0	 1600	 2000	 2400	 0	 0	 1	-30	 30;
	 131	 301	 0.0251839	 0.0676106	 0.000957681	 59	 59	 59	 0	 0	 1	-30	 30;
	 131	 303	 0.041558	 0.101726	 0.00173936	 59	 59	 59	 0	 0	 1	-30	 30;
	 134	 135	 0.00926992	 0.0248865	 0.000352504	 59	 59	 59	 0	 0	 1	-30	 30;
	 135	 138	 0.0155625	 0.03912	 0.000633413	 59	 59	 59	 0	 0	 1	-30	 30;
	 136	 302	 0.00969366	 0.0263915	 0.000363394	 59	 59	 59	 0	 0	 1	-30	 30;
	 139	 140	 0.0038852	 0.0102705	 0.00298384	 128	 128	 128	 0	 0	 1	-30	 30;
	 139	 152	 0.00414172	 0.0111191	 0.00251995	 118	 118	 118	 0	 0	 1	-30	 30;
	 141	 142	 0.0105477	 0.0283169	 0.000401095	 59	 59	 59	 0	 0	 1	-30	 30;
	 141	 144	 0.0185655	 0.0477246	 0.000738599	 59	 59	 59	 0	 0	 1	-30	 30;
	 143	 179	 0.00376773	 0.00922237	 0.00252293	 118	 118	 118	 0	 0	 1	-30	 30;
	 143	 315	 0.00683079	 0.0216898	 0.0060848	 142	 142	 142	 0	 0	 1	-30	 30;
	 144	 153	 0.0106294	 0.0275947	 0.000418597	 59	 59	 59	 0	 0	 1	-30	 30;
	 145	 154	 0.0123858	 0.0303169	 0.000518355	 59	 59	 59	 0	 0	 1	-30	 30;
	 146	 159	 4.57299e-05	 0.000847051	 0.0559231	 1216	 1216	 1216	 0	 0	 1	-30	 30;
	 146	 305	 1e-07	 0.0001	 0	 800	 1000	 1200	 0	 0	 1	-30	 30;
	 147	 151	 0.00398476	 0.0105337	 0.00306031	 128	 128	 128	 0	 0	 1	-30	 30;
	 148	 149	 0.0126014	 0.0333031	 0.000487192	 59	 59	 59	 0	 0	 1	-30	 30;
	 148	 154	 0.00509291	 0.01564	 0.000293481	 71	 71	 71	 0	 0	 1	-30	 30;
	 149	 150	 0.0184983	 0.0475519	 0.000735925	 59	 59	 59	 0	 0	 1	-30	 30;
	 150	 155	 0.0498054	 0.131632	 0.00192576	 59	 59	 59	 0	 0	 1	-30	 30;
	 151	 152	 0.00209202	 0.00512068	 0.00140084	 118	 118	 118	 0	 0	 1	-30	 30;
	 153	 154	 0.012269	 0.030031	 0.000513466	 59	 59	 59	 0	 0	 1	-30	 30;
	 155	 156	 0.0452616	 0.110792	 0.00189439	 59	 59	 59	 0	 0	 1	-30	 30;
	 155	 243	 0.0491384	 0.104914	 0.00236847	 59	 59	 59	 0	 0	 1	-30	 30;
	 156	 313	 0.0384491	 0.113013	 0.00133224	 59	 59	 59	 0	 0	 1	-30	 30;
	 157	 160	 0.000214134	 0.00153063	 0.0559548	 795	 795	 795	 0	 0	 1	-30	 30;
	 157	 311	 0.000269747	 0.00192817	 0.0704885	 795	 795	 795	 0	 0	 1	-30	 30;
	 158	 177	 0.01723	 0.0433116	 0.000701283	 59	 59	 59	 0	 0	 1	-30	 30;
	 158	 319	 0.0397181	 0.0921983	 0.00175557	 59	 59	 59	 0	 0	 1	-30	 30;
	 159	 311	 1e-07	 0.0001	 0	 1200	 1500	 1800	 0	 0	 1	-30	 30;
	 159	 311	 1e-07	 0.0001	 0	 1200	 1500	 1800	 0	 0	 1	-30	 30;
	 162	 331	 0.0271031	 0.0641804	 0.00117343	 59	 59	 59	 0	 0	 1	-30	 30;
...
];

mpc_regionR1.gencost = [
%	2           startup     shutdown    n           c(n-1)...c0 
	 2	 0	 0	 3	 0	 18.77	-5.544;
	 2	 0	 0	 3	 0	 18.45	-5.544;
	 2	 0	 0	 3	 0	 20.12	-5.544;
	 2	 0	 0	 3	 0	 21.35	-5.544;
	 2	 0	 0	 3	 0	 20.21	-5.544;
	 2	 0	 0	 3	 0	 19.56	-5.544;
	 2	 0	 0	 3	 0	 22.48	-268.3;
	 2	 0	 0	 3	 0	 22.48	-268.3;
	 2	 0	 0	 3	 0	 25.92	-39.06;
	 2	 0	 0	 3	 0	 22.52	-39.06;
	 2	 0	 0	 3	 0	 20.11	-40.05;
	 2	 0	 0	 3	 0	 20.8	-40.05;
	 2	 0	 0	 3	 0	 20.57	-40.05;
	 2	 0	 0	 3	 0	 20.74	-40.05;
	 2	 0	 0	 3	 0.0264	 14.01	-4.127;
	 2	 0	 0	 3	 0	 20.17	-39.06;
	 2	 0	 0	 3	 0	 19.25	-9.504;
	 2	 0	 0	 3	 0	 17.8	-5.551;
	 2	 0	 0	 3	 0	 18.76	-5.544;
	 2	 0	 0	 3	 0	 21.15	-31.74;
	 2	 0	 0	 3	 0	 18.93	-31.74;
	 2	 0	 0	 3	 0	 18.92	-31.74;
	 2	 0	 0	 3	 0	 20.22	-5.551;
	 2	 0	 0	 3	 0	 20.77	-31.74;
	 2	 0	 0	 3	 0	 20.66	-268.3;
	 2	 0	 0	 3	 0	 19.06	-5.551;
	 2	 0	 0	 3	 0	 17.74	-5.551;
	 2	 0	 0	 3	 0	 18.43	-5.551;
	 2	 0	 0	 3	 0	 17.93	-5.551;
	 2	 0	 0	 3	 0	 18.69	-5.551;
	 2	 0	 0	 3	 0	 18.58	-5.551;
	 2	 0	 0	 3	 0	 18.42	-5.544;
];


% -------------------- mpc_regionR2 --------------------

mpc_regionR2.version = '2';
mpc_regionR2.baseMVA = 100.0000;
mpc_regionR2.bus = [
%	bus_i       type        Pd          Qd          Gs          Bs          area        Vm          Va          baseKV      zone        Vmax        Vmin        
	 1	 1	 0	 0	 0	 0	 1	 1	 0	 500	 1	 1.1	 0.9;
	 2	 1	 0	 0	 0	 0	 1	 1	 0	 500	 1	 1.1	 0.9;
	 3	 1	 0	 0	 0	 0	 1	 1	 0	 500	 1	 1.1	 0.9;
	 4	 1	 0	 0	 0	 0	 1	 1	 0	 500	 1	 1.1	 0.9;
	 5	 2	 0	 0	 0	 0	 1	 1	 0	 138	 1	 1.1	 0.9;
	 6	 1	 0	 0	 0	 0	 1	 1	 0	 500	 1	 1.1	 0.9;
	 7	 2	 0	 0	 0	 0	 1	 1	 0	 138	 1	 1.1	 0.9;
	 8	 1	 0	 0	 0	 0	 1	 1	 0	 230	 1	 1.1	 0.9;
	 9	 2	 0	 0	 0	 0	 1	 1	 0	 138	 1	 1.1	 0.9;
	 10	 1	 0	 0	 0	 0	 1	 1	 0	 345	 1	 1.1	 0.9;
	 11	 1	 0	 0	 0	 0	 1	 1	 0	 500	 1	 1.1	 0.9;
	 12	 1	 0	 0	 0	 0	 1	 1	 0	 500	 1	 1.1	 0.9;
	 13	 2	 0	 0	 0	 0	 1	 1	 0	 500	 1	 1.1	 0.9;
	 14	 1	 0	 0	 0	 0	 1	 1	 0	 500	 1	 1.1	 0.9;
	 15	 2	 0	 0	 0	 0	 1	 1	 0	 500	 1	 1.1	 0.9;
	 16	 1	 0	 0	 0	 0	 1	 1	 0	 500	 1	 1.1	 0.9;
	 17	 2	 0	 0	 0	 0	 1	 1	 0	 138	 1	 1.1	 0.9;
	 18	 2	 0	 0	 0	 0	 1	 1	 0	 138	 1	 1.1	 0.9;
	 19	 1	 21.62	 6.3	 0	 0	 1	 1	 0	 69	 1	 1.1	 0.9;
	 20	 1	 5.3	 1.3	 0	 0	 1	 1	 0	 69	 1	 1.1	 0.9;
	 21	 1	 0	 0	 0	 0	 1	 1	 0	 500	 1	 1.1	 0.9;
	 22	 1	 0	 0	 0	 0	 1	 1	 0	 138	 1	 1.1	 0.9;
	 23	 1	 5.44	 1.48	 0	 0	 1	 1	 0	 69	 1	 1.1	 0.9;
	 24	 1	 4.74	 1.3	 0	 0	 1	 1	 0	 69	 1	 1.1	 0.9;
	 25	 1	 7.39	 2.13	 0	 0	 1	 1	 0	 69	 1	 1.1	 0.9;
	 26	 1	 0	 0	 0	 0	 1	 1	 0	 345	 1	 1.1	 0.9;
	 27	 1	 0	 0	 0	 0	 1	 1	 0	 138	 1	 1.1	 0.9;
	 28	 1	 13.53	 3.24	 0	 0	 1	 1	 0	 69	 1	 1.1	 0.9;
	 29	 1	 20.92	 4.73	 0	 0	 1	 1	 0	 345	 1	 1.1	 0.9;
	 30	 1	 0	 0	 0	 0	 1	 1	 0	 345	 1	 1.1	 0.9;
	 31	 1	 22.73	 5.38	 0	 0	 1	 1	 0	 345	 1	 1.1	 0.9;
	 32	 1	 0	 0	 0	 0	 1	 1	 0	 345	 1	 1.1	 0.9;
	 33	 1	 0	 0	 0	 0	 1	 1	 0	 138	 1	 1.1	 0.9;
	 34	 1	 20.08	 5.93	 0	 0	 1	 1	 0	 69	 1	 1.1	 0.9;
	 35	 1	 8.51	 2.5	 0	 0	 1	 1	 0	 69	 1	 1.1	 0.9;
	 36	 1	 9.48	 2.69	 0	 0	 1	 1	 0	 69	 1	 1.1	 0.9;
	 37	 1	 4.74	 1.21	 0	 0	 1	 1	 0	 69	 1	 1.1	 0.9;
	 38	 1	 7.81	 2.13	 0	 0	 1	 1	 0	 138	 1	 1.1	 0.9;
	 39	 1	 10.32	 2.69	 0	 0	 1	 1	 0	 69	 1	 1.1	 0.9;
	 40	 1	 0	 0	 0	 0	 1	 1	 0	 138	 1	 1.1	 0.9;
	 41	 1	 14.51	 3.89	 0	 0	 1	 1	 0	 69	 1	 1.1	 0.9;
	 42	 1	 161.8	 28.64	 0	 0	 1	 1	 0	 345	 1	 1.1	 0.9;
	 43	 1	 0	 0	 0	 0	 1	 1	 0	 138	 1	 1.1	 0.9;
	 44	 1	 16.46	 4.54	 0	 0	 1	 1	 0	 69	 1	 1.1	 0.9;
	 45	 1	 12.55	 3.89	 0	 0	 1	 1	 0	 69	 1	 1.1	 0.9;
	 46	 1	 19.81	 5.47	 0	 0	 1	 1	 0	 69	 1	 1.1	 0.9;
	 47	 1	 0	 0	 0	 0	 1	 1	 0	 138	 1	 1.1	 0.9;
	 48	 1	 20.78	 5.38	 0	 0	 1	 1	 0	 69	 1	 1.1	 0.9;
	 49	 1	 5.72	 1.67	 0	 0	 1	 1	 0	 69	 1	 1.1	 0.9;
	 50	 1	 13.95	 3.8	 0	 0	 1	 1	 0	 69	 1	 1.1	 0.9;
	 51	 1	 7.53	 2.13	 0	 0	 1	 1	 0	 69	 1	 1.1	 0.9;
	 52	 1	 92.47	 15.76	 0	 0	 1	 1	 0	 345	 1	 1.1	 0.9;
	 53	 1	 24.83	 7.14	 0	 0	 1	 1	 0	 69	 1	 1.1	 0.9;
	 54	 1	 17.85	 4.63	 0	 0	 1	 1	 0	 69	 1	 1.1	 0.9;
	 55	 1	 14.09	 3.8	 0	 0	 1	 1	 0	 69	 1	 1.1	 0.9;
	 56	 1	 0	 0	 0	 0	 1	 1	 0	 500	 1	 1.1	 0.9;
	 57	 1	 10.18	 2.69	 0	 0	 1	 1	 0	 69	 1	 1.1	 0.9;
	 58	 1	 0.56	 0.18	 0	 0	 1	 1	 0	 69	 1	 1.1	 0.9;
	 59	 1	 10.04	 2.6	 0	 0	 1	 1	 0	 69	 1	 1.1	 0.9;
	 60	 1	 0	 0	 0	 0	 1	 1	 0	 138	 1	 1.1	 0.9;
	 61	 1	 3.77	 1.11	 0	 0	 1	 1	 0	 69	 1	 1.1	 0.9;
	 62	 1	 4.46	 1.39	 0	 0	 1	 1	 0	 138	 1	 1.1	 0.9;
	 63	 1	 0	 0	 0	 0	 1	 1	 0	 138	 1	 1.1	 0.9;
	 64	 1	 138.08	 26.32	 0	 0	 1	 1	 0	 500	 1	 1.1	 0.9;
	 65	 1	 19.81	 5.28	 0	 0	 1	 1	 0	 138	 1	 1.1	 0.9;
	 66	 1	 0	 0	 0	 0	 1	 1	 0	 138	 1	 1.1	 0.9;
	 67	 1	 0	 0	 0	 0	 1	 1	 0	 138	 1	 1.1	 0.9;
	 68	 1	 23.29	 6.86	 0	 0	 1	 1	 0	 69	 1	 1.1	 0.9;
	 69	 1	 21.06	 5.38	 0	 0	 1	 1	 0	 69	 1	 1.1	 0.9;
	 70	 1	 9.07	 2.41	 0	 0	 1	 1	 0	 69	 1	 1.1	 0.9;
	 71	 1	 0	 0	 0	 0	 1	 1	 0	 138	 1	 1.1	 0.9;
	 72	 1	 0	 0	 0	 0	 1	 1	 0	 138	 1	 1.1	 0.9;
	 73	 1	 24.69	 7.14	 0	 0	 1	 1	 0	 69	 1	 1.1	 0.9;
	 74	 1	 32.5	 8.16	 0	 0	 1	 1	 0	 138	 1	 1.1	 0.9;
	 75	 1	 0	 0	 0	 0	 1	 1	 0	 138	 1	 1.1	 0.9;
	 76	 1	 0	 0	 0	 0	 1	 1	 0	 138	 1	 1.1	 0.9;
	 77	 1	 25.52	 7.04	 0	 0	 1	 1	 0	 69	 1	 1.1	 0.9;
	 78	 1	 0	 0	 0	 31.9999913208	 1	 1	 0	 138	 1	 1.1	 0.9;
	 79	 1	 0	 0	 0	 31.999990207	 1	 1	 0	 138	 1	 1.1	 0.9;
	 80	 1	 11.58	 3.43	 0	 0	 1	 1	 0	 69	 1	 1.1	 0.9;
	 81	 1	 0	 0	 0	 0	 1	 1	 0	 138	 1	 1.1	 0.9;
	 82	 1	 6.14	 1.76	 0	 0	 1	 1	 0	 69	 1	 1.1	 0.9;
	 83	 1	 0	 0	 0	 0	 1	 1	 0	 138	 1	 1.1	 0.9;
	 84	 1	 16.32	 3.98	 0	 0	 1	 1	 0	 138	 1	 1.1	 0.9;
	 85	 1	 7.67	 2.32	 0	 0	 1	 1	 0	 138	 1	 1.1	 0.9;
	 86	 1	 12.27	 3.52	 0	 0	 1	 1	 0	 69	 1	 1.1	 0.9;
	 87	 1	 25.8	 5.65	 0	 0	 1	 1	 0	 138	 1	 1.1	 0.9;
	 88	 1	 0	 0	 0	 0	 1	 1	 0	 138	 1	 1.1	 0.9;
	 89	 1	 0	 0	 0	 0	 1	 1	 0	 138	 1	 1.1	 0.9;
	 90	 1	 24.55	 5	 0	 0	 1	 1	 0	 138	 1	 1.1	 0.9;
	 91	 1	 73.5	 19.83	 0	 0	 1	 1	 0	 138	 1	 1.1	 0.9;
	 92	 1	 65.97	 13.99	 0	 0	 1	 1	 0	 138	 1	 1.1	 0.9;
	 93	 1	 16.6	 5	 0	 0	 1	 1	 0	 69	 1	 1.1	 0.9;
	 94	 1	 21.2	 5.93	 0	 0	 1	 1	 0	 69	 1	 1.1	 0.9;
	 95	 1	 0	 0	 0	 0	 1	 1	 0	 345	 1	 1.1	 0.9;
	 96	 1	 274.49	 69.88	 0	 0	 1	 1	 0	 500	 1	 1.1	 0.9;
	 97	 1	 0	 0	 0	 0	 1	 1	 0	 138	 1	 1.1	 0.9;
	 98	 1	 0	 0	 0	 0	 1	 1	 0	 138	 1	 1.1	 0.9;
	 99	 1	 0	 0	 0	 0	 1	 1	 0	 138	 1	 1.1	 0.9;
	 100	 1	 129.99	 24.56	 0	 0	 1	 1	 0	 138	 1	 1.1	 0.9;
	 101	 1	 20.22	 5.1	 0	 0	 1	 1	 0	 138	 1	 1.1	 0.9;
	 102	 1	 0	 0	 0	 0	 1	 1	 0	 138	 1	 1.1	 0.9;
	 103	 1	 0	 0	 0	 0	 1	 1	 0	 138	 1	 1.1	 0.9;
	 104	 1	 42.68	 11.4	 0	 0	 1	 1	 0	 69	 1	 1.1	 0.9;
	 105	 1	 11.58	 3.24	 0	 0	 1	 1	 0	 69	 1	 1.1	 0.9;
	 106	 1	 13.81	 4.08	 0	 0	 1	 1	 0	 69	 1	 1.1	 0.9;
	 107	 1	 9.76	 2.97	 0	 0	 1	 1	 0	 69	 1	 1.1	 0.9;
	 108	 1	 0	 0	 0	 0	 1	 1	 0	 138	 1	 1.1	 0.9;
	 109	 1	 0	 0	 0	 0	 1	 1	 0	 138	 1	 1.1	 0.9;
	 110	 1	 11.72	 2.97	 0	 0	 1	 1	 0	 138	 1	 1.1	 0.9;
	 111	 1	 57.6	 11.68	 0	 0	 1	 1	 0	 138	 1	 1.1	 0.9;
	 112	 1	 43.52	 9.64	 0	 0	 1	 1	 0	 500	 1	 1.1	 0.9;
	 113	 1	 64.58	 17.24	 0	 0	 1	 1	 0	 500	 1	 1.1	 0.9;
	 114	 1	 0	 0	 0	 0	 1	 1	 0	 138	 1	 1.1	 0.9;
	 115	 1	 18.27	 4.26	 0	 0	 1	 1	 0	 138	 1	 1.1	 0.9;
	 116	 1	 0	 0	 0	 0	 1	 1	 0	 138	 1	 1.1	 0.9;
	 117	 1	 57.88	 10.94	 0	 0	 1	 1	 0	 138	 1	 1.1	 0.9;
	 118	 1	 5.86	 1.58	 0	 0	 1	 1	 0	 138	 1	 1.1	 0.9;
	 119	 1	 0.98	 0.18	 0	 0	 1	 1	 0	 69	 1	 1.1	 0.9;
	 120	 1	 32.22	 7.41	 0	 0	 1	 1	 0	 138	 1	 1.1	 0.9;
	 121	 1	 28.87	 8.06	 0	 0	 1	 1	 0	 138	 1	 1.1	 0.9;
	 122	 1	 0	 0	 0	 0	 1	 1	 0	 500	 1	 1.1	 0.9;
	 123	 1	 25.38	 3.8	 0	 0	 1	 1	 0	 69	 1	 1.1	 0.9;
	 124	 1	 6.14	 1.85	 0	 0	 1	 1	 0	 69	 1	 1.1	 0.9;
	 125	 1	 46.45	 10.38	 0	 0	 1	 1	 0	 138	 1	 1.1	 0.9;
	 126	 1	 31.1	 7.88	 0	 0	 1	 1	 0	 345	 1	 1.1	 0.9;
	 127	 1	 14.23	 4.08	 0	 0	 1	 1	 0	 500	 1	 1.1	 0.9;
	 128	 1	 25.11	 5.84	 0	 0	 1	 1	 0	 230	 1	 1.1	 0.9;
	 129	 1	 0	 0	 0	 0	 1	 1	 0	 138	 1	 1.1	 0.9;
	 130	 1	 66.11	 18.17	 0	 0	 1	 1	 0	 138	 1	 1.1	 0.9;
	 131	 1	 23.29	 4.73	 0	 0	 1	 1	 0	 138	 1	 1.1	 0.9;
	 132	 1	 0	 0	 0	 0	 1	 1	 0	 138	 1	 1.1	 0.9;
	 133	 1	 16.04	 4.36	 0	 0	 1	 1	 0	 69	 1	 1.1	 0.9;
	 134	 1	 49.79	 13.25	 0	 0	 1	 1	 0	 500	 1	 1.1	 0.9;
	 135	 1	 0	 0	 0	 0	 1	 1	 0	 500	 1	 1.1	 0.9;
	 136	 1	 9.35	 2.5	 0	 0	 1	 1	 0	 69	 1	 1.1	 0.9;
	 137	 1	 0	 0	 0	 0	 1	 1	 0	 138	 1	 1.1	 0.9;
	 138	 1	 13.95	 3.89	 0	 0	 1	 1	 0	 138	 1	 1.1	 0.9;
	 139	 1	 17.43	 4.26	 0	 0	 1	 1	 0	 69	 1	 1.1	 0.9;
	 140	 1	 561.96	 126.05	 0	 0	 1	 1	 0	 500	 1	 1.1	 0.9;
	 141	 1	 0	 0	 0	 0	 1	 1	 0	 500	 1	 1.1	 0.9;
	 142	 1	 14.51	 3.98	 0	 0	 1	 1	 0	 69	 1	 1.1	 0.9;
	 143	 1	 41.57	 8.62	 0	 0	 1	 1	 0	 138	 1	 1.1	 0.9;
	 144	 1	 19.67	 5.93	 0	 0	 1	 1	 0	 345	 1	 1.1	 0.9;
	 145	 1	 21.62	 5.19	 0	 0	 1	 1	 0	 138	 1	 1.1	 0.9;
	 146	 1	 3.91	 0.93	 0	 0	 1	 1	 0	 69	 1	 1.1	 0.9;
	 147	 1	 0	 0	 0	 0	 1	 1	 0	 138	 1	 1.1	 0.9;
	 148	 1	 26.92	 7.14	 0	 0	 1	 1	 0	 69	 1	 1.1	 0.9;
	 149	 1	 0	 0	 0	 0	 1	 1	 0	 138	 1	 1.1	 0.9;
	 150	 1	 0	 0	 0	 0	 1	 1	 0	 138	 1	 1.1	 0.9;
	 151	 1	 0	 0	 0	 0	 1	 1	 0	 138	 1	 1.1	 0.9;
	 152	 1	 14.23	 3.8	 0	 0	 1	 1	 0	 500	 1	 1.1	 0.9;
	 153	 1	 0	 0	 0	 0	 1	 1	 0	 500	 1	 1.1	 0.9;
	 154	 1	 5.86	 1.39	 0	 0	 1	 1	 0	 69	 1	 1.1	 0.9;
	 155	 1	 24.97	 6.39	 0	 0	 1	 1	 0	 69	 1	 1.1	 0.9;
	 156	 1	 4.74	 1.48	 0	 0	 1	 1	 0	 138	 1	 1.1	 0.9;
	 157	 1	 8.37	 2.69	 0	 0	 1	 1	 0	 138	 1	 1.1	 0.9;
	 158	 1	 0	 0	 0	 0	 1	 1	 0	 138	 1	 1.1	 0.9;
	 159	 1	 0	 0	 0	 0	 1	 1	 0	 138	 1	 1.1	 0.9;
	 160	 1	 5.3	 1.3	 0	 0	 1	 1	 0	 138	 1	 1.1	 0.9;
	 161	 1	 7.67	 2.41	 0	 0	 1	 1	 0	 138	 1	 1.1	 0.9;
	 162	 1	 0	 0	 0	 0	 1	 1	 0	 138	 1	 1.1	 0.9;
	 163	 1	 19.53	 5.56	 0	 0	 1	 1	 0	 138	 1	 1.1	 0.9;
	 164	 1	 0.98	 0.28	 0	 0	 1	 1	 0	 138	 1	 1.1	 0.9;
	 165	 1	 0	 0	 0	 0	 1	 1	 0	 69	 1	 1.1	 0.9;
	 166	 1	 17.3	 4.82	 0	 0	 1	 1	 0	 69	 1	 1.1	 0.9;
	 167	 1	 0	 0	 0	 0	 1	 1	 0	 138	 1	 1.1	 0.9;
	 168	 1	 14.37	 4.08	 0	 0	 1	 1	 0	 69	 1	 1.1	 0.9;
	 169	 1	 0	 0	 0	 0	 1	 1	 0	 138	 1	 1.1	 0.9;
	 170	 1	 0	 0	 0	 0	 1	 1	 0	 345	 1	 1.1	 0.9;
	 171	 1	 7.39	 1.85	 0	 0	 1	 1	 0	 69	 1	 1.1	 0.9;
	 172	 1	 20.08	 6.21	 0	 0	 1	 1	 0	 69	 1	 1.1	 0.9;
	 173	 1	 17.16	 4.08	 0	 0	 1	 1	 0	 69	 1	 1.1	 0.9;
	 174	 1	 7.81	 2.13	 0	 0	 1	 1	 0	 69	 1	 1.1	 0.9;
	 175	 1	 7.11	 1.85	 0	 0	 1	 1	 0	 69	 1	 1.1	 0.9;
	 176	 1	 0	 0	 0	 0	 1	 1	 0	 138	 1	 1.1	 0.9;
	 177	 1	 12.41	 3.62	 0	 0	 1	 1	 0	 69	 1	 1.1	 0.9;
	 178	 1	 0	 0	 0	 0	 1	 1	 0	 138	 1	 1.1	 0.9;
	 179	 1	 10.74	 3.15	 0	 0	 1	 1	 0	 69	 1	 1.1	 0.9;
	 180	 1	 39.19	 9.82	 0	 0	 1	 1	 0	 69	 1	 1.1	 0.9;
	 181	 1	 0	 0	 0	 0	 1	 1	 0	 138	 1	 1.1	 0.9;
	 182	 1	 0	 0	 0	 0	 1	 1	 0	 138	 1	 1.1	 0.9;
	 183	 1	 0	 0	 0	 0	 1	 1	 0	 138	 1	 1.1	 0.9;
	 184	 1	 5.44	 1.48	 0	 0	 1	 1	 0	 69	 1	 1.1	 0.9;
	 185	 1	 4.88	 1.21	 0	 0	 1	 1	 0	 69	 1	 1.1	 0.9;
	 186	 1	 0	 0	 0	 0	 1	 1	 0	 345	 1	 1.1	 0.9;
	 187	 1	 13.25	 3.52	 0	 0	 1	 1	 0	 69	 1	 1.1	 0.9;
	 188	 1	 0	 0	 0	 0	 1	 1	 0	 138	 1	 1.1	 0.9;
	 189	 1	 10.46	 2.69	 0	 0	 1	 1	 0	 138	 1	 1.1	 0.9;
	 190	 1	 13.39	 3.43	 0	 0	 1	 1	 0	 69	 1	 1.1	 0.9;
	 191	 1	 0	 0	 0	 0	 1	 1	 0	 138	 1	 1.1	 0.9;
	 192	 1	 0	 0	 0	 0	 1	 1	 0	 138	 1	 1.1	 0.9;
	 193	 1	 4.74	 1.48	 0	 0	 1	 1	 0	 69	 1	 1.1	 0.9;
	 194	 1	 12	 3.15	 0	 0	 1	 1	 0	 69	 1	 1.1	 0.9;
	 195	 1	 4.6	 1.21	 0	 0	 1	 1	 0	 69	 1	 1.1	 0.9;
	 196	 1	 5.02	 1.58	 0	 0	 1	 1	 0	 69	 1	 1.1	 0.9;
	 197	 1	 18.13	 4.17	 0	 0	 1	 1	 0	 69	 1	 1.1	 0.9;
	 198	 1	 5.86	 1.58	 0	 0	 1	 1	 0	 138	 1	 1.1	 0.9;
	 199	 1	 0	 0	 0	 0	 1	 1	 0	 138	 1	 1.1	 0.9;
	 200	 1	 6.83	 1.48	 0	 0	 1	 1	 0	 69	 1	 1.1	 0.9;
...
];

mpc_regionR2.gen = [
%	bus         Pg          Qg          Qmax        Qmin        Vg          mBase       status      Pmax        Pmin        Pc1         Pc2         Qc1min      Qc1max      Qc2min      Qc2max      ramp_agc    ramp_10     ramp_30     ramp_q      apf         
	 5	 21	 0	 94.8	-94.8	 1	 100	 1	 32	 10;
	 5	 67.5	 0	 103.2	-103.2	 1	 100	 1	 115	 20;
	 7	 89.25	 0	 91.2	-91.2	 1	 100	 1	 160	 18.5;
	 7	 254.25	 0	 245	-245	 1	 100	 1	 490	 18.5;
	 9	 49.725	 0	 45	-45	 1	 100	 1	 90	 9.45;
	 9	 89.225	 0	 85	-85	 1	 100	 1	 169	 9.45;
	 9	 59.725	 0	 55	-55	 1	 100	 1	 110	 9.45;
	 9	 92.725	 0	 88	-88	 1	 100	 1	 176	 9.45;
	 9	 39.725	 0	 35	-35	 1	 100	 1	 70	 9.45;
	 13	 366.5	 0	 349	-349	 1	 100	 1	 698	 35;
	 13	 357	 0	 340	-340	 1	 100	 1	 679	 35;
	 13	 294	 0	 277	-277	 1	 100	 1	 553	 35;
	 15	 354	 0	 333	-333	 1	 100	 1	 666	 42;
	 15	 119	 0	 105.6	-105.6	 1	 100	 1	 196	 42;
	 15	 138.75	 0	 120	-120	 1	 100	 1	 240	 37.5;
	 15	 113.25	 0	 104.4	-104.4	 1	 100	 1	 189	 37.5;
	 17	 33.5	 0	 57.6	-57.6	 1	 100	 1	 61	 6;
	 17	 33	 0	 57.6	-57.6	 1	 100	 1	 60	 6;
	 17	 17.5	 0	 57.6	-57.6	 1	 100	 1	 29	 6;
	 18	 63	 0	 63	-63	 1	 100	 1	 125	 1;
	 18	 43.5	 0	 43	-43	 1	 100	 1	 86	 1;
	 385	 1176	 0	 1075	-1075	 1	 100	 1	 2150	 202;
	 385	 1173.25	 0	 1073	-1073	 1	 100	 1	 2146	 200.5;
	 389	 567.5	 0	 493	-493	 1	 100	 1	 985	 150;
	 392	 249.25	 0	 209	-209	 1	 100	 1	 418	 80.5;
	 392	 244.25	 0	 218	-218	 1	 100	 1	 436	 52.5;
	 394	 197.5	 0	 168	-168	 1	 100	 1	 335	 60;
	 394	 98.75	-2.55	 96.9	-102	 1	 100	 1	 150	 47.5;
	 395	 238.25	 0	 226	-226	 1	 100	 1	 451	 25.5;
	 395	 174.5625	 0	 158	-158	 1	 100	 1	 315	 34.125;
	 395	 179.75	 0	 167	-167	 1	 100	 1	 334	 25.5;
	 395	 177.75	 0	 165	-165	 1	 100	 1	 330	 25.5;
	 395	 218.75	 0	 206	-206	 1	 100	 1	 412	 25.5;
	 395	 177.25	 0	 165	-165	 1	 100	 1	 329	 25.5;
	 395	 273.75	 0	 261	-261	 1	 100	 1	 522	 25.5;
	 395	 370.25	 0	 358	-358	 1	 100	 1	 715	 25.5;
	 395	 212.25	 0	 200	-200	 1	 100	 1	 399	 25.5;
	 395	 174.25	 0	 162	-162	 1	 100	 1	 323	 25.5;
	 396	 192.25	 0	 181	-181	 1	 100	 1	 362	 22.5;
	 396	 167.75	 0	 157	-157	 1	 100	 1	 313	 22.5;
	 396	 242.25	 0	 231	-231	 1	 100	 1	 462	 22.5;
	 396	 149.75	 0	 139	-139	 1	 100	 1	 277	 22.5;
	 396	 215.25	 0	 204	-204	 1	 100	 1	 408	 22.5;
	 396	 342.75	 0	 332	-332	 1	 100	 1	 663	 22.5;
	 396	 241.75	 0	 231	-231	 1	 100	 1	 461	 22.5;
	 396	 161.75	 0	 151	-151	 1	 100	 1	 301	 22.5;
	 397	 161.75	 0	 158	-158	 1	 100	 1	 316	 7.5;
	 397	 158.25	 0	 155	-155	 1	 100	 1	 309	 7.5;
	 400	 71.625	 0	 64	-64	 1	 100	 1	 127	 16.25;
	 400	 55.125	 0	 47	-47	 1	 100	 1	 94	 16.25;
	 400	 60.625	 0	 53	-53	 1	 100	 1	 105	 16.25;
	 400	 122.625	 0	 115	-115	 1	 100	 1	 229	 16.25;
	 401	 5.75	 0	 130.8	-130.8	 1	 100	 1	 10	 1.5;
	 403	 875	 0	 713	-713	 1	 100	 1	 1425	 325;
	 403	 928.5	 0	 766	-766	 1	 100	 1	 1532	 325;
	 407	 113.55	 0	 94	-94	 1	 100	 1	 188	 39.1;
	 407	 200.05	 0	 181	-181	 1	 100	 1	 361	 39.1;
	 407	 55	 0.45	 40.9	-40	 1	 100	 1	 80	 30;
	 407	 89	 0	 74	-74	 1	 100	 1	 148	 30;
	 407	 67	 0	 52	-52	 1	 100	 1	 104	 30;
	 407	 48.5	 3.45	 40.9	-34	 1	 100	 1	 67	 30;
	 407	 143.5	 0	 129	-129	 1	 100	 1	 257	 30;
	 410	 256.5	 0	 242	-242	 1	 100	 1	 483	 30;
	 410	 91.848	 4.35	 83.7	-75	 1	 100	 1	 150	 33.696;
	 410	 81.5	 0	 68	-68	 1	 100	 1	 135	 28;
	 410	 146	 0	 132	-132	 1	 100	 1	 264	 28;
	 410	 100.5	 0	 87	-87	 1	 100	 1	 173	 28;
	 410	 102	 0	 88	-88	 1	 100	 1	 176	 28;
	 410	 58.25	 0	 52	-52	 1	 100	 1	 104	 12.5;
	 410	 83.75	 0	 78	-78	 1	 100	 1	 155	 12.5;
	 410	 55.75	 0	 50	-50	 1	 100	 1	 99	 12.5;
	 410	 64.25	 0	 58	-58	 1	 100	 1	 116	 12.5;
	 410	 68.75	 0	 63	-63	 1	 100	 1	 125	 12.5;
	 410	 200.5	 0	 186	-186	 1	 100	 1	 371	 30;
	 410	 71.25	 0	 65	-65	 1	 100	 1	 130	 12.5;
	 410	 71.25	 0	 65	-65	 1	 100	 1	 130	 12.5;
	 410	 73.75	 0	 68	-68	 1	 100	 1	 135	 12.5;
	 410	 58.75	 0	 53	-53	 1	 100	 1	 105	 12.5;
	 410	 68.75	 0	 63	-63	 1	 100	 1	 125	 12.5;
	 410	 56.75	 0	 51	-51	 1	 100	 1	 101	 12.5;
	 410	 59.75	 0	 54	-54	 1	 100	 1	 107	 12.5;
	 410	 117.25	 0	 111	-111	 1	 100	 1	 222	 12.5;
	 410	 127.75	 0	 122	-122	 1	 100	 1	 243	 12.5;
	 410	 63.75	 0	 58	-58	 1	 100	 1	 115	 12.5;
	 410	 85	 0	 70	-70	 1	 100	 1	 140	 30;
	 410	 198.25	 0	 192	-192	 1	 100	 1	 384	 12.5;
	 410	 164	 0	 149	-149	 1	 100	 1	 298	 30;
	 410	 137.5	 0	 123	-123	 1	 100	 1	 246	 29;
	 410	 110	 0	 96	-96	 1	 100	 1	 191	 29;
	 410	 88.5	 4.85	 83.7	-74	 1	 100	 1	 147	 30;
	 410	 92.5	 2.85	 83.7	-78	 1	 100	 1	 155	 30;
	 410	 112.348	 0	 96	-96	 1	 100	 1	 191	 33.696;
	 414	 49.675	 0	 42	-42	 1	 100	 1	 83	 16.35;
	 414	 42.175	 0	 34	-34	 1	 100	 1	 68	 16.35;
	 414	 38.675	 0	 31	-31	 1	 100	 1	 61	 16.35;
	 414	 77.675	 0	 70	-70	 1	 100	 1	 139	 16.35;
	 414	 67.7	 0	 60	-60	 1	 100	 1	 120	 15.4;
	 414	 30.7	 0	 23	-23	 1	 100	 1	 46	 15.4;
];

mpc_regionR2.branch = [
%	fbus        tbus        r           x           b           rateA       rateB       rateC       ratio       angle       status      angmin      angmax      
	 1	 96	 0.000789981	 0.0146676	 0.971817	 1216	 1216	 1216	 0	 0	 1	-30	 30;
	 2	 64	 0.00146191	 0.0104567	 0.382633	 795	 795	 795	 0	 0	 1	-30	 30;
	 3	 96	 0.000283058	 0.00506083	 0.359334	 1216	 1216	 1216	 0	 0	 1	-30	 30;
	 4	 122	 0.000200416	 0.00358272	 0.254326	 1801	 1801	 1801	 0	 0	 1	-30	 30;
	 4	 135	 6.61987e-05	 0.0012262	 0.080956	 1632	 1632	 1632	 0	 0	 1	-30	 30;
	 5	 100	 0.02387	 0.0955749	 0.0323083	 175	 175	 175	 0	 0	 1	-30	 30;
	 6	 122	 0.000229782	 0.00410787	 0.291626	 1216	 1216	 1216	 0	 0	 1	-30	 30;
	 6	 140	 1.29368e-05	 0.000231228	 0.0164105	 2213	 2213	 2213	 0	 0	 1	-30	 30;
	 6	 141	 0.000102296	 0.00182849	 0.129777	 1216	 1216	 1216	 0	 0	 1	-30	 30;
	 7	 147	 0.00278279	 0.0129032	 0.00428842	 191	 191	 191	 0	 0	 1	-30	 30;
	 7	 149	 0.0186721	 0.0760002	 0.0185224	 159	 159	 159	 0	 0	 1	-30	 30;
	 7	 156	 0.0144201	 0.0362505	 0.00939188	 118	 118	 118	 0	 0	 1	-30	 30;
	 8	 128	 0.000503707	 0.00259229	 0.00495588	 308	 308	 308	 0	 0	 1	-30	 30;
	 8	 574	 0.0199497	 0.105807	 0.192573	 308	 308	 308	 0	 0	 1	-30	 30;
	 9	 117	 0.0173105	 0.0645544	 0.0130476	 142	 142	 142	 0	 0	 1	-30	 30;
	 9	 162	 0.0538472	 0.158587	 0.0521129	 142	 142	 142	 0	 0	 1	-30	 30;
	 9	 400	 0.00335697	 0.0154003	 0.00394509	 175	 175	 175	 0	 0	 1	-30	 30;
	 9	 479	 0.0145679	 0.0396646	 0.00873915	 118	 118	 118	 0	 0	 1	-30	 30;
	 10	 26	 0.00293584	 0.0207661	 0.176168	 549	 549	 549	 0	 0	 1	-30	 30;
	 10	 478	 0.00127281	 0.00872567	 0.0787385	 549	 549	 549	 0	 0	 1	-30	 30;
	 11	 96	 0.00115204	 0.0206978	 1.48025	 1216	 1216	 1216	 0	 0	 1	-30	 30;
	 11	 140	 4.78509e-05	 0.000886339	 0.058517	 1216	 1216	 1216	 0	 0	 1	-30	 30;
	 12	 141	 0.00107443	 0.0192901	 1.37818	 1216	 1216	 1216	 0	 0	 1	-30	 30;
	 12	 267	 0.000358611	 0.00641285	 0.455456	 1216	 1216	 1216	 0	 0	 1	-30	 30;
	 12	 402	 1e-07	 0.0001	 0	 2200	 2375	 2650	 0	 0	 1	-30	 30;
	 13	 241	 0.00368264	 0.0264391	 0.972679	 795	 795	 795	 0	 0	 1	-30	 30;
	 13	 381	 0.000379745	 0.00278503	 0.0966416	 795	 795	 795	 0	 0	 1	-30	 30;
	 14	 267	 0.000236146	 0.0042217	 0.299712	 1925	 1925	 1925	 0	 0	 1	-30	 30;
	 14	 270	 5.27743e-05	 0.000943283	 0.0669466	 2896	 2896	 2896	 0	 0	 1	-30	 30;
	 14	 302	 0.000960665	 0.0172319	 1.22946	 1216	 1216	 1216	 0	 0	 1	-30	 30;
	 15	 241	 0.000345499	 0.00246969	 0.0902869	 795	 795	 795	 0	 0	 1	-30	 30;
	 15	 301	 0.00119296	 0.00853102	 0.312065	 795	 795	 795	 0	 0	 1	-30	 30;
	 16	 236	 0.000126075	 0.0023354	 0.154197	 1216	 1216	 1216	 0	 0	 1	-30	 30;
	 16	 288	 0.000214859	 0.003841	 0.27267	 1216	 1216	 1216	 0	 0	 1	-30	 30;
	 17	 188	 0.0120478	 0.037001	 0.0111101	 142	 142	 142	 0	 0	 1	-30	 30;
	 17	 189	 0.01049	 0.028163	 0.00638287	 118	 118	 118	 0	 0	 1	-30	 30;
	 17	 203	 0.0149459	 0.040834	 0.0110979	 128	 128	 128	 0	 0	 1	-30	 30;
	 18	 235	 0.0242606	 0.059394	 0.0162516	 118	 118	 118	 0	 0	 1	-30	 30;
	 18	 237	 0.00493807	 0.0174544	 0.00393303	 142	 142	 142	 0	 0	 1	-30	 30;
	 19	 20	 0.0648722	 0.196689	 0.00217775	 59	 59	 59	 0	 0	 1	-30	 30;
	 19	 418	 0.0852242	 0.197855	 0.0037679	 77	 77	 77	 0	 0	 1	-30	 30;
	 19	 475	 0.068846	 0.173076	 0.00280266	 59	 59	 59	 0	 0	 1	-30	 30;
	 21	 135	 0.000257941	 0.00477899	 0.315628	 1216	 1216	 1216	 0	 0	 1	-30	 30;
	 24	 486	 0.0671598	 0.159047	 0.00290816	 59	 59	 59	 0	 0	 1	-30	 30;
	 25	 421	 0.0604683	 0.14802	 0.00253103	 59	 59	 59	 0	 0	 1	-30	 30;
	 26	 52	 0.00537477	 0.0374446	 0.329324	 549	 549	 549	 0	 0	 1	-30	 30;
	 26	 170	 0.00472307	 0.033441	 0.284104	 549	 549	 549	 0	 0	 1	-30	 30;
	 27	 108	 0.0258288	 0.0693555	 0.015722	 118	 118	 118	 0	 0	 1	-30	 30;
	 27	 118	 0.0227876	 0.0549229	 0.0155096	 118	 118	 118	 0	 0	 1	-30	 30;
	 28	 425	 0.054648	 0.140486	 0.00217433	 59	 59	 59	 0	 0	 1	-30	 30;
	 29	 31	 0.000678059	 0.00481153	 0.0404659	 549	 549	 549	 0	 0	 1	-30	 30;
	 29	 144	 0.00118575	 0.00808784	 0.073733	 549	 549	 549	 0	 0	 1	-30	 30;
	 30	 31	 0.00028456	 0.00201154	 0.0170495	 549	 549	 549	 0	 0	 1	-30	 30;
	 30	 32	 0.00038779	 0.0026836	 0.0237488	 549	 549	 549	 0	 0	 1	-30	 30;
	 30	 577	 0.00406669	 0.0293049	 0.239902	 549	 549	 549	 0	 0	 1	-30	 30;
	 32	 478	 0.00368768	 0.0265681	 0.21743	 549	 549	 549	 0	 0	 1	-30	 30;
	 33	 255	 0.0451038	 0.108762	 0.0307302	 118	 118	 118	 0	 0	 1	-30	 30;
	 35	 250	 0.0774418	 0.204688	 0.00299479	 59	 59	 59	 0	 0	 1	-30	 30;
	 36	 371	 0.0990983	 0.242612	 0.00414906	 59	 59	 59	 0	 0	 1	-30	 30;
	 38	 97	 0.0230711	 0.0804256	 0.0186549	 142	 142	 142	 0	 0	 1	-30	 30;
	 39	 82	 0.0888703	 0.217563	 0.00372053	 59	 59	 59	 0	 0	 1	-30	 30;
	 40	 43	 0.00202268	 0.00704915	 0.00163449	 142	 142	 142	 0	 0	 1	-30	 30;
	 40	 47	 0.00439982	 0.013339	 0.00236284	 118	 118	 118	 0	 0	 1	-30	 30;
	 41	 48	 0.0446345	 0.115879	 0.0017579	 59	 59	 59	 0	 0	 1	-30	 30;
	 41	 51	 0.0597773	 0.135603	 0.00270538	 59	 59	 59	 0	 0	 1	-30	 30;
	 41	 430	 0.0129894	 0.0337217	 0.00051154	 59	 59	 59	 0	 0	 1	-30	 30;
	 42	 144	 0.00734252	 0.0488519	 0.474798	 549	 549	 549	 0	 0	 1	-30	 30;
	 42	 348	 0.00282636	 0.0191852	 0.176972	 549	 549	 549	 0	 0	 1	-30	 30;
	 44	 45	 0.0111141	 0.0272043	 0.000465136	 59	 59	 59	 0	 0	 1	-30	 30;
	 45	 46	 0.0224219	 0.054883	 0.000938392	 59	 59	 59	 0	 0	 1	-30	 30;
	 45	 54	 0.0657071	 0.176415	 0.00249907	 59	 59	 59	 0	 0	 1	-30	 30;
	 46	 430	 0.0144269	 0.0347662	 0.000613486	 59	 59	 59	 0	 0	 1	-30	 30;
	 47	 162	 0.0308178	 0.0699258	 0.022327	 118	 118	 118	 0	 0	 1	-30	 30;
	 48	 49	 0.0931481	 0.228039	 0.00389975	 59	 59	 59	 0	 0	 1	-30	 30;
	 48	 489	 0.0988202	 0.241931	 0.00413741	 59	 59	 59	 0	 0	 1	-30	 30;
	 49	 459	 0.0822927	 0.191048	 0.00363821	 59	 59	 59	 0	 0	 1	-30	 30;
	 50	 51	 0.0839941	 0.205622	 0.00351626	 59	 59	 59	 0	 0	 1	-30	 30;
	 50	 460	 0.0859725	 0.199593	 0.003801	 59	 59	 59	 0	 0	 1	-30	 30;
	 50	 484	 0.160388	 0.379991	 0.00695143	 59	 59	 59	 0	 0	 1	-30	 30;
	 52	 432	 0.00115755	 0.00801119	 0.0709046	 549	 549	 549	 0	 0	 1	-30	 30;
	 53	 434	 0.0147524	 0.0584239	 0.000652838	 71	 71	 71	 0	 0	 1	-30	 30;
	 53	 487	 0.158381	 0.381859	 0.0067421	 59	 59	 59	 0	 0	 1	-30	 30;
	 54	 58	 0.0577333	 0.141324	 0.00241652	 59	 59	 59	 0	 0	 1	-30	 30;
	 54	 434	 0.0837671	 0.221411	 0.00323953	 59	 59	 59	 0	 0	 1	-30	 30;
	 54	 489	 0.101251	 0.229716	 0.00458371	 59	 59	 59	 0	 0	 1	-30	 30;
	 55	 57	 0.0096257	 0.023561	 0.000402843	 59	 59	 59	 0	 0	 1	-30	 30;
	 55	 434	 0.0118467	 0.0318041	 0.000450489	 59	 59	 59	 0	 0	 1	-30	 30;
	 56	 153	 0.00277727	 0.0199009	 0.730115	 795	 795	 795	 0	 0	 1	-30	 30;
	 56	 339	 0.000780786	 0.00558206	 0.204115	 795	 795	 795	 0	 0	 1	-30	 30;
	 56	 477	 0.00381417	 0.0273924	 1.00823	 795	 795	 795	 0	 0	 1	-30	 30;
	 57	 58	 0.0150097	 0.0402958	 0.000570771	 59	 59	 59	 0	 0	 1	-30	 30;
	 57	 562	 0.0241676	 0.0572289	 0.00104633	 59	 59	 59	 0	 0	 1	-30	 30;
	 59	 172	 0.0898883	 0.216648	 0.00382366	 59	 59	 59	 0	 0	 1	-30	 30;
	 59	 435	 0.0584456	 0.143068	 0.00244634	 59	 59	 59	 0	 0	 1	-30	 30;
	 60	 62	 0.0175609	 0.0429882	 0.0117614	 118	 118	 118	 0	 0	 1	-30	 30;
	 60	 117	 0.0386629	 0.114474	 0.0213052	 118	 118	 118	 0	 0	 1	-30	 30;
	 60	 169	 0.0389247	 0.0903982	 0.0275548	 118	 118	 118	 0	 0	 1	-30	 30;
	 61	 467	 0.281065	 0.689058	 0.0118027	 59	 59	 59	 0	 0	 1	-30	 30;
	 62	 110	 0.0240451	 0.0558249	 0.0170106	 118	 118	 118	 0	 0	 1	-30	 30;
	 63	 67	 0.00241753	 0.0064902	 0.00147089	 118	 118	 118	 0	 0	 1	-30	 30;
	 63	 437	 0.00170346	 0.00546244	 0.00216261	 159	 159	 159	 0	 0	 1	-30	 30;
	 65	 66	 0.00164012	 0.00401455	 0.00109824	 118	 118	 118	 0	 0	 1	-30	 30;
	 67	 72	 0.0059063	 0.0160804	 0.0035427	 118	 118	 118	 0	 0	 1	-30	 30;
	 68	 69	 0.0108374	 0.0272422	 0.000441092	 59	 59	 59	 0	 0	 1	-30	 30;
	 69	 70	 0.00530173	 0.0140115	 0.000204973	 59	 59	 59	 0	 0	 1	-30	 30;
	 69	 442	 0.0203445	 0.0481758	 0.000880807	 59	 59	 59	 0	 0	 1	-30	 30;
	 72	 74	 0.0146484	 0.0387156	 0.00906261	 118	 118	 118	 0	 0	 1	-30	 30;
	 73	 476	 0.0638383	 0.148196	 0.002822	 59	 59	 59	 0	 0	 1	-30	 30;
	 74	 451	 0.018238	 0.0579196	 0.0162517	 142	 142	 142	 0	 0	 1	-30	 30;
	 75	 97	 0.0204098	 0.0539461	 0.0126288	 118	 118	 118	 0	 0	 1	-30	 30;
	 75	 356	 0.0128752	 0.0340286	 0.00796533	 118	 118	 118	 0	 0	 1	-30	 30;
	 76	 360	 0.0329347	 0.0806425	 0.0220697	 118	 118	 118	 0	 0	 1	-30	 30;
	 77	 445	 0.0379716	 0.100354	 0.00146813	 59	 59	 59	 0	 0	 1	-30	 30;
	 77	 446	 0.0433047	 0.100525	 0.00191413	 59	 59	 59	 0	 0	 1	-30	 30;
	 78	 79	 0.00665424	 0.0162879	 0.00445588	 118	 118	 118	 0	 0	 1	-30	 30;
	 78	 81	 0.0192181	 0.0435977	 0.0139177	 118	 118	 118	 0	 0	 1	-30	 30;
	 78	 83	 0.0255333	 0.0625113	 0.017105	 118	 118	 118	 0	 0	 1	-30	 30;
	 79	 85	 0.00827698	 0.0288466	 0.00668896	 142	 142	 142	 0	 0	 1	-30	 30;
	 82	 448	 0.0768968	 0.182111	 0.00332999	 59	 59	 59	 0	 0	 1	-30	 30;
	 83	 474	 0.0309946	 0.114046	 0.0237142	 142	 142	 142	 0	 0	 1	-30	 30;
	 84	 85	 0.0241878	 0.0561564	 0.0171116	 118	 118	 118	 0	 0	 1	-30	 30;
	 84	 131	 0.011797	 0.0403014	 0.014023	 159	 159	 159	 0	 0	 1	-30	 30;
	 84	 481	 0.0207858	 0.0500966	 0.0141463	 118	 118	 118	 0	 0	 1	-30	 30;
	 86	 94	 0.0656837	 0.160789	 0.00274941	 59	 59	 59	 0	 0	 1	-30	 30;
	 86	 450	 0.0129484	 0.0325489	 0.000527016	 59	 59	 59	 0	 0	 1	-30	 30;
	 87	 88	 0.000849939	 0.00204819	 0.000578275	 118	 118	 118	 0	 0	 1	-30	 30;
	 87	 91	 0.00401498	 0.00982756	 0.0026885	 118	 118	 118	 0	 0	 1	-30	 30;
	 88	 90	 0.00163692	 0.00432608	 0.00101258	 118	 118	 118	 0	 0	 1	-30	 30;
	 88	 92	 0.00245895	 0.00660141	 0.00149609	 118	 118	 118	 0	 0	 1	-30	 30;
	 89	 90	 0.000925533	 0.00219164	 0.000641117	 118	 118	 118	 0	 0	 1	-30	 30;
	 90	 92	 0.00205193	 0.005158	 0.00133625	 118	 118	 118	 0	 0	 1	-30	 30;
	 90	 453	 0.0110116	 0.0418592	 0.0117187	 159	 159	 159	 0	 0	 1	-30	 30;
	 91	 451	 0.0178468	 0.0548156	 0.016461	 142	 142	 142	 0	 0	 1	-30	 30;
	 93	 94	 0.0491433	 0.131938	 0.00186894	 59	 59	 59	 0	 0	 1	-30	 30;
	 94	 452	 0.0226724	 0.12017	 0.00250655	 103	 103	 103	 0	 0	 1	-30	 30;
	 98	 492	 0.0186552	 0.0509707	 0.0138536	 128	 128	 128	 0	 0	 1	-30	 30;
	 99	 102	 0.0107943	 0.0370302	 0.00887178	 142	 142	 142	 0	 0	 1	-30	 30;
	 99	 492	 0.0226525	 0.0777263	 0.0186268	 142	 142	 142	 0	 0	 1	-30	 30;
	 100	 101	 0.00542665	 0.0139498	 0.00345427	 118	 118	 118	 0	 0	 1	-30	 30;
	 100	 103	 0.00754544	 0.0189675	 0.00491389	 118	 118	 118	 0	 0	 1	-30	 30;
	 101	 102	 0.00933826	 0.0236543	 0.00749646	 128	 128	 128	 0	 0	 1	-30	 30;
	 101	 103	 0.00293859	 0.00719284	 0.00196772	 118	 118	 118	 0	 0	 1	-30	 30;
	 103	 109	 0.0239857	 0.0644045	 0.0145992	 118	 118	 118	 0	 0	 1	-30	 30;
	 103	 149	 0.0299074	 0.0790617	 0.0185116	 118	 118	 118	 0	 0	 1	-30	 30;
	 104	 106	 0.0781175	 0.221257	 0.00281249	 59	 59	 59	 0	 0	 1	-30	 30;
	 104	 482	 0.126385	 0.383275	 0.00424484	 59	 59	 59	 0	 0	 1	-30	 30;
	 106	 460	 0.059315	 0.145196	 0.00248274	 59	 59	 59	 0	 0	 1	-30	 30;
	 107	 459	 0.0640144	 0.156702	 0.00267951	 59	 59	 59	 0	 0	 1	-30	 30;
	 108	 109	 0.0178472	 0.0622081	 0.0144272	 142	 142	 142	 0	 0	 1	-30	 30;
	 110	 466	 0.0380406	 0.0986442	 0.0298617	 128	 128	 128	 0	 0	 1	-30	 30;
	 111	 117	 0.0255267	 0.0662828	 0.0160914	 118	 118	 118	 0	 0	 1	-30	 30;
	 112	 113	 0.000163686	 0.00292598	 0.20769	 1216	 1216	 1216	 0	 0	 1	-30	 30;
	 112	 461	 1e-07	 0.0001	 0	 400	 500	 600	 0	 0	 1	-30	 30;
	 112	 461	 1e-07	 0.0001	 0	 400	 500	 600	 0	 0	 1	-30	 30;
	 113	 462	 1e-07	 0.0001	 0	 1600	 2000	 2400	 0	 0	 1	-30	 30;
	 114	 158	 0.0214266	 0.0556331	 0.013505	 118	 118	 118	 0	 0	 1	-30	 30;
	 115	 116	 0.0110352	 0.0384606	 0.00891857	 142	 142	 142	 0	 0	 1	-30	 30;
	 116	 366	 0.0197159	 0.0521117	 0.0121992	 118	 118	 118	 0	 0	 1	-30	 30;
	 117	 118	 0.0176464	 0.0575635	 0.0152849	 142	 142	 142	 0	 0	 1	-30	 30;
	 118	 161	 0.0228537	 0.054126	 0.0158364	 118	 118	 118	 0	 0	 1	-30	 30;
	 120	 121	 0.00305827	 0.0097107	 0.00272415	 142	 142	 142	 0	 0	 1	-30	 30;
	 120	 129	 0.00440799	 0.012001	 0.00264396	 118	 118	 118	 0	 0	 1	-30	 30;
	 121	 466	 0.00182714	 0.00639313	 0.00211861	 159	 159	 159	 0	 0	 1	-30	 30;
	 125	 470	 0.00337017	 0.00904773	 0.00205051	 118	 118	 118	 0	 0	 1	-30	 30;
	 126	 468	 0.000194174	 0.00133099	 0.0120086	 549	 549	 549	 0	 0	 1	-30	 30;
	 126	 473	 0.000464	 0.003212	 0.028425	 849	 849	 849	 0	 0	 1	-30	 30;
	 127	 134	 0.000152961	 0.00109336	 0.0399691	 795	 795	 795	 0	 0	 1	-30	 30;
	 127	 381	 0.00348486	 0.0250075	 0.919389	 795	 795	 795	 0	 0	 1	-30	 30;
	 127	 477	 0.00102135	 0.00749264	 0.260105	 795	 795	 795	 0	 0	 1	-30	 30;
	 130	 143	 0.0226173	 0.0718338	 0.0201583	 142	 142	 142	 0	 0	 1	-30	 30;
	 133	 136	 0.0447486	 0.116175	 0.00176239	 59	 59	 59	 0	 0	 1	-30	 30;
	 137	 138	 0.0247601	 0.0622521	 0.0161308	 118	 118	 118	 0	 0	 1	-30	 30;
	 140	 477	 1e-07	 0.0001	 0	 1600	 2000	 2400	 0	 0	 1	-30	 30;
	 143	 145	 0.0177485	 0.0469106	 0.0109813	 118	 118	 118	 0	 0	 1	-30	 30;
	 143	 481	 0.00763716	 0.0186939	 0.00511412	 118	 118	 118	 0	 0	 1	-30	 30;
	 145	 164	 0.0239448	 0.0642946	 0.0145743	 118	 118	 118	 0	 0	 1	-30	 30;
	 146	 155	 0.0681623	 0.154627	 0.00308501	 59	 59	 59	 0	 0	 1	-30	 30;
	 146	 482	 0.0445722	 0.101107	 0.0020171	 59	 59	 59	 0	 0	 1	-30	 30;
	 147	 150	 0.0136928	 0.042803	 0.012399	 142	 142	 142	 0	 0	 1	-30	 30;
	 150	 151	 0.00593976	 0.0188604	 0.00529101	 142	 142	 142	 0	 0	 1	-30	 30;
	 151	 157	 0.0321913	 0.0788212	 0.0215709	 118	 118	 118	 0	 0	 1	-30	 30;
	 152	 153	 0.000444628	 0.00317836	 0.116199	 795	 795	 795	 0	 0	 1	-30	 30;
	 157	 158	 0.0217743	 0.051569	 0.015088	 118	 118	 118	 0	 0	 1	-30	 30;
	 158	 160	 0.0207403	 0.0538507	 0.0130722	 118	 118	 118	 0	 0	 1	-30	 30;
	 159	 347	 0.0175892	 0.0472253	 0.0107039	 118	 118	 118	 0	 0	 1	-30	 30;
	 160	 351	 0.0144023	 0.0373289	 0.0112938	 128	 128	 128	 0	 0	 1	-30	 30;
	 161	 162	 0.0183843	 0.0450044	 0.0123132	 118	 118	 118	 0	 0	 1	-30	 30;
	 162	 163	 0.0182441	 0.0560377	 0.00967262	 118	 118	 118	 0	 0	 1	-30	 30;
	 163	 164	 0.021226	 0.0569921	 0.0129184	 118	 118	 118	 0	 0	 1	-30	 30;
	 165	 368	 0.0887676	 0.217312	 0.00371623	 59	 59	 59	 0	 0	 1	-30	 30;
	 166	 490	 0.0734456	 0.197196	 0.00279352	 59	 59	 59	 0	 0	 1	-30	 30;
	 167	 169	 0.0227389	 0.0601044	 0.0140709	 118	 118	 118	 0	 0	 1	-30	 30;
	 168	 491	 0.0766452	 0.205788	 0.00291527	 59	 59	 59	 0	 0	 1	-30	 30;
	 171	 172	 0.0842792	 0.199599	 0.00364987	 59	 59	 59	 0	 0	 1	-30	 30;
	 172	 173	 0.0556819	 0.151606	 0.00208766	 59	 59	 59	 0	 0	 1	-30	 30;
	 174	 177	 0.102814	 0.238707	 0.00454621	 59	 59	 59	 0	 0	 1	-30	 30;
	 174	 249	 0.130313	 0.319076	 0.00545763	 59	 59	 59	 0	 0	 1	-30	 30;
	 174	 265	 0.102739	 0.264153	 0.00408906	 59	 59	 59	 0	 0	 1	-30	 30;
...